
---------- Begin Simulation Statistics ----------
simSeconds                                   0.050836                       # Number of seconds simulated (Second)
simTicks                                  50835898548                       # Number of ticks simulated (Tick)
finalTick                                 50835898548                       # Number of ticks from beginning of simulation (restored from checkpoints and never reset) (Tick)
simFreq                                  1000000000000                       # The number of ticks per simulated second ((Tick/Second))
hostSeconds                                    473.39                       # Real time elapsed on the host (Second)
hostTickRate                                107386550                       # The number of ticks simulated per host second (ticks/s) ((Tick/Second))
hostMemory                                    2793644                       # Number of bytes of host memory used (Byte)
simInsts                                     52101494                       # Number of instructions simulated (Count)
simOps                                       83639881                       # Number of ops (including micro ops) simulated (Count)
hostInstRate                                   110060                       # Simulator instruction rate (inst/s) ((Count/Second))
hostOpRate                                     176682                       # Simulator op (including micro ops) rate (op/s) ((Count/Second))
board.cache_hierarchy.ruby_system.delayHistogram::bucket_size          256                       # delay histogram for all message (Unspecified)
board.cache_hierarchy.ruby_system.delayHistogram::max_bucket         2559                       # delay histogram for all message (Unspecified)
board.cache_hierarchy.ruby_system.delayHistogram::samples      5342164                       # delay histogram for all message (Unspecified)
board.cache_hierarchy.ruby_system.delayHistogram::mean     0.892055                       # delay histogram for all message (Unspecified)
board.cache_hierarchy.ruby_system.delayHistogram::stdev     3.373558                       # delay histogram for all message (Unspecified)
board.cache_hierarchy.ruby_system.delayHistogram |     5342151    100.00%    100.00% |           2      0.00%    100.00% |           1      0.00%    100.00% |           1      0.00%    100.00% |           1      0.00%    100.00% |           1      0.00%    100.00% |           4      0.00%    100.00% |           2      0.00%    100.00% |           1      0.00%    100.00% |           0      0.00%    100.00% # delay histogram for all message (Unspecified)
board.cache_hierarchy.ruby_system.delayHistogram::total      5342164                       # delay histogram for all message (Unspecified)
board.cache_hierarchy.ruby_system.m_outstandReqHistSeqr::bucket_size            1                       (Unspecified)
board.cache_hierarchy.ruby_system.m_outstandReqHistSeqr::max_bucket            9                       (Unspecified)
board.cache_hierarchy.ruby_system.m_outstandReqHistSeqr::samples     49833204                       (Unspecified)
board.cache_hierarchy.ruby_system.m_outstandReqHistSeqr::mean     1.216919                       (Unspecified)
board.cache_hierarchy.ruby_system.m_outstandReqHistSeqr::gmean     1.160433                       (Unspecified)
board.cache_hierarchy.ruby_system.m_outstandReqHistSeqr::stdev     0.425130                       (Unspecified)
board.cache_hierarchy.ruby_system.m_outstandReqHistSeqr |           0      0.00%      0.00% |    39294307     78.85%     78.85% |    10268032     20.60%     99.46% |      270865      0.54%    100.00% |           0      0.00%    100.00% |           0      0.00%    100.00% |           0      0.00%    100.00% |           0      0.00%    100.00% |           0      0.00%    100.00% |           0      0.00%    100.00% (Unspecified)
board.cache_hierarchy.ruby_system.m_outstandReqHistSeqr::total     49833204                       (Unspecified)
board.cache_hierarchy.ruby_system.m_latencyHistSeqr::bucket_size          256                       (Unspecified)
board.cache_hierarchy.ruby_system.m_latencyHistSeqr::max_bucket         2559                       (Unspecified)
board.cache_hierarchy.ruby_system.m_latencyHistSeqr::samples     49833226                       (Unspecified)
board.cache_hierarchy.ruby_system.m_latencyHistSeqr::mean     5.171818                       (Unspecified)
board.cache_hierarchy.ruby_system.m_latencyHistSeqr::gmean     1.087753                       (Unspecified)
board.cache_hierarchy.ruby_system.m_latencyHistSeqr::stdev    39.624611                       (Unspecified)
board.cache_hierarchy.ruby_system.m_latencyHistSeqr |    49501395     99.33%     99.33% |      261863      0.53%     99.86% |       56826      0.11%     99.97% |        6769      0.01%     99.99% |        4346      0.01%    100.00% |        1705      0.00%    100.00% |         322      0.00%    100.00% |           0      0.00%    100.00% |           0      0.00%    100.00% |           0      0.00%    100.00% (Unspecified)
board.cache_hierarchy.ruby_system.m_latencyHistSeqr::total     49833226                       (Unspecified)
board.cache_hierarchy.ruby_system.m_hitLatencyHistSeqr::bucket_size            1                       (Unspecified)
board.cache_hierarchy.ruby_system.m_hitLatencyHistSeqr::max_bucket            9                       (Unspecified)
board.cache_hierarchy.ruby_system.m_hitLatencyHistSeqr::samples     49063804                       (Unspecified)
board.cache_hierarchy.ruby_system.m_hitLatencyHistSeqr::mean     1.000001                       (Unspecified)
board.cache_hierarchy.ruby_system.m_hitLatencyHistSeqr::gmean     1.000001                       (Unspecified)
board.cache_hierarchy.ruby_system.m_hitLatencyHistSeqr::stdev     0.000868                       (Unspecified)
board.cache_hierarchy.ruby_system.m_hitLatencyHistSeqr |           0      0.00%      0.00% |    49063767    100.00%    100.00% |          37      0.00%    100.00% |           0      0.00%    100.00% |           0      0.00%    100.00% |           0      0.00%    100.00% |           0      0.00%    100.00% |           0      0.00%    100.00% |           0      0.00%    100.00% |           0      0.00%    100.00% (Unspecified)
board.cache_hierarchy.ruby_system.m_hitLatencyHistSeqr::total     49063804                       (Unspecified)
board.cache_hierarchy.ruby_system.m_missLatencyHistSeqr::bucket_size          256                       (Unspecified)
board.cache_hierarchy.ruby_system.m_missLatencyHistSeqr::max_bucket         2559                       (Unspecified)
board.cache_hierarchy.ruby_system.m_missLatencyHistSeqr::samples       769422                       (Unspecified)
board.cache_hierarchy.ruby_system.m_missLatencyHistSeqr::mean   271.196475                       (Unspecified)
board.cache_hierarchy.ruby_system.m_missLatencyHistSeqr::gmean   232.249654                       (Unspecified)
board.cache_hierarchy.ruby_system.m_missLatencyHistSeqr::stdev   172.663145                       (Unspecified)
board.cache_hierarchy.ruby_system.m_missLatencyHistSeqr |      437591     56.87%     56.87% |      261863     34.03%     90.91% |       56826      7.39%     98.29% |        6769      0.88%     99.17% |        4346      0.56%     99.74% |        1705      0.22%     99.96% |         322      0.04%    100.00% |           0      0.00%    100.00% |           0      0.00%    100.00% |           0      0.00%    100.00% (Unspecified)
board.cache_hierarchy.ruby_system.m_missLatencyHistSeqr::total       769422                       (Unspecified)
board.cache_hierarchy.ruby_system.delayVCHist.vnet_0::bucket_size          256                       # delay histogram for vnet_0 (Unspecified)
board.cache_hierarchy.ruby_system.delayVCHist.vnet_0::max_bucket         2559                       # delay histogram for vnet_0 (Unspecified)
board.cache_hierarchy.ruby_system.delayVCHist.vnet_0::samples      1909341                       # delay histogram for vnet_0 (Unspecified)
board.cache_hierarchy.ruby_system.delayVCHist.vnet_0::mean     2.026245                       # delay histogram for vnet_0 (Unspecified)
board.cache_hierarchy.ruby_system.delayVCHist.vnet_0::stdev     5.151949                       # delay histogram for vnet_0 (Unspecified)
board.cache_hierarchy.ruby_system.delayVCHist.vnet_0 |     1909328    100.00%    100.00% |           2      0.00%    100.00% |           1      0.00%    100.00% |           1      0.00%    100.00% |           1      0.00%    100.00% |           1      0.00%    100.00% |           4      0.00%    100.00% |           2      0.00%    100.00% |           1      0.00%    100.00% |           0      0.00%    100.00% # delay histogram for vnet_0 (Unspecified)
board.cache_hierarchy.ruby_system.delayVCHist.vnet_0::total      1909341                       # delay histogram for vnet_0 (Unspecified)
board.cache_hierarchy.ruby_system.delayVCHist.vnet_1::bucket_size            8                       # delay histogram for vnet_1 (Unspecified)
board.cache_hierarchy.ruby_system.delayVCHist.vnet_1::max_bucket           79                       # delay histogram for vnet_1 (Unspecified)
board.cache_hierarchy.ruby_system.delayVCHist.vnet_1::samples      3050402                       # delay histogram for vnet_1 (Unspecified)
board.cache_hierarchy.ruby_system.delayVCHist.vnet_1::mean     0.293963                       # delay histogram for vnet_1 (Unspecified)
board.cache_hierarchy.ruby_system.delayVCHist.vnet_1::stdev     1.433480                       # delay histogram for vnet_1 (Unspecified)
board.cache_hierarchy.ruby_system.delayVCHist.vnet_1 |     3005208     98.52%     98.52% |       42470      1.39%     99.91% |        2381      0.08%     99.99% |         252      0.01%    100.00% |          59      0.00%    100.00% |          20      0.00%    100.00% |          12      0.00%    100.00% |           0      0.00%    100.00% |           0      0.00%    100.00% |           0      0.00%    100.00% # delay histogram for vnet_1 (Unspecified)
board.cache_hierarchy.ruby_system.delayVCHist.vnet_1::total      3050402                       # delay histogram for vnet_1 (Unspecified)
board.cache_hierarchy.ruby_system.delayVCHist.vnet_2::bucket_size            1                       # delay histogram for vnet_2 (Unspecified)
board.cache_hierarchy.ruby_system.delayVCHist.vnet_2::max_bucket            9                       # delay histogram for vnet_2 (Unspecified)
board.cache_hierarchy.ruby_system.delayVCHist.vnet_2::samples       382421                       # delay histogram for vnet_2 (Unspecified)
board.cache_hierarchy.ruby_system.delayVCHist.vnet_2::mean     0.000010                       # delay histogram for vnet_2 (Unspecified)
board.cache_hierarchy.ruby_system.delayVCHist.vnet_2::stdev     0.004574                       # delay histogram for vnet_2 (Unspecified)
board.cache_hierarchy.ruby_system.delayVCHist.vnet_2 |      382419    100.00%    100.00% |           0      0.00%    100.00% |           2      0.00%    100.00% |           0      0.00%    100.00% |           0      0.00%    100.00% |           0      0.00%    100.00% |           0      0.00%    100.00% |           0      0.00%    100.00% |           0      0.00%    100.00% |           0      0.00%    100.00% # delay histogram for vnet_2 (Unspecified)
board.cache_hierarchy.ruby_system.delayVCHist.vnet_2::total       382421                       # delay histogram for vnet_2 (Unspecified)
board.cache_hierarchy.ruby_system.Directory_Controller.Fetch       760144      0.00%      0.00% (Unspecified)
board.cache_hierarchy.ruby_system.Directory_Controller.Data       502269      0.00%      0.00% (Unspecified)
board.cache_hierarchy.ruby_system.Directory_Controller.Memory_Data       760144      0.00%      0.00% (Unspecified)
board.cache_hierarchy.ruby_system.Directory_Controller.Memory_Ack       502269      0.00%      0.00% (Unspecified)
board.cache_hierarchy.ruby_system.Directory_Controller.CleanReplacement       253780      0.00%      0.00% (Unspecified)
board.cache_hierarchy.ruby_system.Directory_Controller.I.Fetch       760144      0.00%      0.00% (Unspecified)
board.cache_hierarchy.ruby_system.Directory_Controller.M.Data       502269      0.00%      0.00% (Unspecified)
board.cache_hierarchy.ruby_system.Directory_Controller.M.CleanReplacement       253780      0.00%      0.00% (Unspecified)
board.cache_hierarchy.ruby_system.Directory_Controller.IM.Memory_Data       760144      0.00%      0.00% (Unspecified)
board.cache_hierarchy.ruby_system.Directory_Controller.MI.Memory_Ack       502269      0.00%      0.00% (Unspecified)
board.cache_hierarchy.ruby_system.L1Cache_Controller.Load |    15632106     63.54%     63.54% |      611133      2.48%     66.03% |      607156      2.47%     68.49% |      607232      2.47%     70.96% |      604583      2.46%     73.42% |      600426      2.44%     75.86% |      603752      2.45%     78.32% |      600089      2.44%     80.75% |      597700      2.43%     83.18% |      598728      2.43%     85.62% |      588673      2.39%     88.01% |      592188      2.41%     90.42% |      589567      2.40%     92.81% |      588155      2.39%     95.21% |      585156      2.38%     97.58% |      594305      2.42%    100.00% (Unspecified)
board.cache_hierarchy.ruby_system.L1Cache_Controller.Load::total     24600949                       (Unspecified)
board.cache_hierarchy.ruby_system.L1Cache_Controller.Ifetch |     9354886     68.28%     68.28% |      307767      2.25%     70.53% |      301787      2.20%     72.73% |      301890      2.20%     74.93% |      298036      2.18%     77.11% |      292167      2.13%     79.24% |      297506      2.17%     81.41% |      292363      2.13%     83.55% |      289234      2.11%     85.66% |      291174      2.13%     87.78% |      276459      2.02%     89.80% |      282140      2.06%     91.86% |      278649      2.03%     93.89% |      276893      2.02%     95.92% |      272769      1.99%     97.91% |      286881      2.09%    100.00% (Unspecified)
board.cache_hierarchy.ruby_system.L1Cache_Controller.Ifetch::total     13700601                       (Unspecified)
board.cache_hierarchy.ruby_system.L1Cache_Controller.Store |     8833215     76.60%     76.60% |      179896      1.56%     78.16% |      179905      1.56%     79.72% |      179892      1.56%     81.28% |      179886      1.56%     82.84% |      179896      1.56%     84.40% |      179903      1.56%     85.96% |      179895      1.56%     87.52% |      179898      1.56%     89.08% |      179907      1.56%     90.64% |      179903      1.56%     92.20% |      179908      1.56%     93.76% |      179895      1.56%     95.32% |      179885      1.56%     96.88% |      179900      1.56%     98.44% |      179892      1.56%    100.00% (Unspecified)
board.cache_hierarchy.ruby_system.L1Cache_Controller.Store::total     11531676                       (Unspecified)
board.cache_hierarchy.ruby_system.L1Cache_Controller.Inv |       26404      6.91%      6.91% |       23922      6.26%     13.17% |       23818      6.23%     19.40% |       23911      6.26%     25.66% |       23778      6.22%     31.88% |       23807      6.23%     38.11% |       23949      6.27%     44.38% |       23730      6.21%     50.59% |       23580      6.17%     56.76% |       23782      6.22%     62.99% |       23486      6.15%     69.13% |       23565      6.17%     75.30% |       23568      6.17%     81.47% |       23473      6.14%     87.61% |       23539      6.16%     93.77% |       23796      6.23%    100.00% (Unspecified)
board.cache_hierarchy.ruby_system.L1Cache_Controller.Inv::total       382108                       (Unspecified)
board.cache_hierarchy.ruby_system.L1Cache_Controller.L1_Replacement |      403045     53.88%     53.88% |       22999      3.07%     56.96% |       22996      3.07%     60.03% |       22999      3.07%     63.11% |       22996      3.07%     66.18% |       22999      3.07%     69.25% |       22996      3.07%     72.33% |       22999      3.07%     75.40% |       22996      3.07%     78.48% |       22999      3.07%     81.55% |       22996      3.07%     84.63% |       22999      3.07%     87.70% |       22996      3.07%     90.78% |       22999      3.07%     93.85% |       23000      3.07%     96.93% |       22998      3.07%    100.00% (Unspecified)
board.cache_hierarchy.ruby_system.L1Cache_Controller.L1_Replacement::total       748012                       (Unspecified)
board.cache_hierarchy.ruby_system.L1Cache_Controller.Fwd_GETX |          64     48.85%     48.85% |           5      3.82%     52.67% |           5      3.82%     56.49% |           5      3.82%     60.31% |           5      3.82%     64.12% |           4      3.05%     67.18% |           5      3.82%     70.99% |           4      3.05%     74.05% |           5      3.82%     77.86% |           5      3.82%     81.68% |           5      3.82%     85.50% |           5      3.82%     89.31% |           5      3.82%     93.13% |           3      2.29%     95.42% |           4      3.05%     98.47% |           2      1.53%    100.00% (Unspecified)
board.cache_hierarchy.ruby_system.L1Cache_Controller.Fwd_GETX::total          131                       (Unspecified)
board.cache_hierarchy.ruby_system.L1Cache_Controller.Fwd_GETS |         159     87.36%     87.36% |          16      8.79%     96.15% |           1      0.55%     96.70% |           1      0.55%     97.25% |           1      0.55%     97.80% |           1      0.55%     98.35% |           0      0.00%     98.35% |           0      0.00%     98.35% |           0      0.00%     98.35% |           0      0.00%     98.35% |           0      0.00%     98.35% |           0      0.00%     98.35% |           0      0.00%     98.35% |           0      0.00%     98.35% |           2      1.10%     99.45% |           1      0.55%    100.00% (Unspecified)
board.cache_hierarchy.ruby_system.L1Cache_Controller.Fwd_GETS::total          182                       (Unspecified)
board.cache_hierarchy.ruby_system.L1Cache_Controller.Data_Exclusive |       17717      6.95%      6.95% |       15903      6.24%     13.18% |       15803      6.20%     19.38% |       15811      6.20%     25.58% |       15806      6.20%     31.78% |       15870      6.22%     38.00% |       15882      6.23%     44.23% |       15804      6.20%     50.42% |       15791      6.19%     56.61% |       15813      6.20%     62.81% |       15781      6.19%     69.00% |       15780      6.19%     75.19% |       15803      6.20%     81.38% |       15802      6.20%     87.58% |       15871      6.22%     93.80% |       15804      6.20%    100.00% (Unspecified)
board.cache_hierarchy.ruby_system.L1Cache_Controller.Data_Exclusive::total       255041                       (Unspecified)
board.cache_hierarchy.ruby_system.L1Cache_Controller.DataS_fromL1 |           2      1.10%      1.10% |          19     10.44%     11.54% |          22     12.09%     23.63% |          14      7.69%     31.32% |          10      5.49%     36.81% |          10      5.49%     42.31% |          10      5.49%     47.80% |           9      4.95%     52.75% |          10      5.49%     58.24% |          10      5.49%     63.74% |          10      5.49%     69.23% |          11      6.04%     75.27% |          11      6.04%     81.32% |          11      6.04%     87.36% |          12      6.59%     93.96% |          11      6.04%    100.00% (Unspecified)
board.cache_hierarchy.ruby_system.L1Cache_Controller.DataS_fromL1::total          182                       (Unspecified)
board.cache_hierarchy.ruby_system.L1Cache_Controller.Data_all_Acks |      387607     75.39%     75.39% |        8409      1.64%     77.02% |        8423      1.64%     78.66% |        8428      1.64%     80.30% |        8436      1.64%     81.94% |        8458      1.65%     83.59% |        8444      1.64%     85.23% |        8443      1.64%     86.87% |        8425      1.64%     88.51% |        8432      1.64%     90.15% |        8435      1.64%     91.79% |        8438      1.64%     93.43% |        8438      1.64%     95.07% |        8441      1.64%     96.71% |        8457      1.64%     98.36% |        8438      1.64%    100.00% (Unspecified)
board.cache_hierarchy.ruby_system.L1Cache_Controller.Data_all_Acks::total       514152                       (Unspecified)
board.cache_hierarchy.ruby_system.L1Cache_Controller.Ack |          15     20.00%     20.00% |           2      2.67%     22.67% |           2      2.67%     25.33% |           2      2.67%     28.00% |           2      2.67%     30.67% |           2      2.67%     33.33% |           2      2.67%     36.00% |           2      2.67%     38.67% |           2      2.67%     41.33% |           2      2.67%     44.00% |           2      2.67%     46.67% |           2      2.67%     49.33% |           2      2.67%     52.00% |           2      2.67%     54.67% |          17     22.67%     77.33% |          17     22.67%    100.00% (Unspecified)
board.cache_hierarchy.ruby_system.L1Cache_Controller.Ack::total           75                       (Unspecified)
board.cache_hierarchy.ruby_system.L1Cache_Controller.Ack_all |          15     31.91%     31.91% |           2      4.26%     36.17% |           2      4.26%     40.43% |           2      4.26%     44.68% |           2      4.26%     48.94% |           2      4.26%     53.19% |           2      4.26%     57.45% |           2      4.26%     61.70% |           2      4.26%     65.96% |           2      4.26%     70.21% |           2      4.26%     74.47% |           2      4.26%     78.72% |           2      4.26%     82.98% |           2      4.26%     87.23% |           3      6.38%     93.62% |           3      6.38%    100.00% (Unspecified)
board.cache_hierarchy.ruby_system.L1Cache_Controller.Ack_all::total           47                       (Unspecified)
board.cache_hierarchy.ruby_system.L1Cache_Controller.WB_Ack |      377732     98.75%     98.75% |         367      0.10%     98.85% |         350      0.09%     98.94% |         258      0.07%     99.01% |         328      0.09%     99.09% |         277      0.07%     99.17% |         309      0.08%     99.25% |         306      0.08%     99.33% |         370      0.10%     99.42% |         304      0.08%     99.50% |         298      0.08%     99.58% |         338      0.09%     99.67% |         266      0.07%     99.74% |         376      0.10%     99.84% |         354      0.09%     99.93% |         264      0.07%    100.00% (Unspecified)
board.cache_hierarchy.ruby_system.L1Cache_Controller.WB_Ack::total       382497                       (Unspecified)
board.cache_hierarchy.ruby_system.L1Cache_Controller.NP.Load |       17376      6.88%      6.88% |       15671      6.21%     13.09% |       15669      6.21%     19.30% |       15671      6.21%     25.51% |       15669      6.21%     31.71% |       15671      6.21%     37.92% |       15669      6.21%     44.13% |       15671      6.21%     50.34% |       15669      6.21%     56.55% |       15671      6.21%     62.75% |       15669      6.21%     68.96% |       15671      6.21%     75.17% |       15669      6.21%     81.38% |       15671      6.21%     87.58% |       15672      6.21%     93.79% |       15670      6.21%    100.00% (Unspecified)
board.cache_hierarchy.ruby_system.L1Cache_Controller.NP.Load::total       252429                       (Unspecified)
board.cache_hierarchy.ruby_system.L1Cache_Controller.NP.Ifetch |        2690     52.41%     52.41% |         160      3.12%     55.52% |         161      3.14%     58.66% |         163      3.18%     61.84% |         164      3.20%     65.03% |         163      3.18%     68.21% |         163      3.18%     71.38% |         163      3.18%     74.56% |         163      3.18%     77.73% |         163      3.18%     80.91% |         163      3.18%     84.08% |         163      3.18%     87.26% |         163      3.18%     90.43% |         163      3.18%     93.61% |         165      3.21%     96.82% |         163      3.18%    100.00% (Unspecified)
board.cache_hierarchy.ruby_system.L1Cache_Controller.NP.Ifetch::total         5133                       (Unspecified)
board.cache_hierarchy.ruby_system.L1Cache_Controller.NP.Store |      384003     76.56%     76.56% |        7840      1.56%     78.12% |        7839      1.56%     79.68% |        7840      1.56%     81.24% |        7839      1.56%     82.81% |        7840      1.56%     84.37% |        7839      1.56%     85.93% |        7840      1.56%     87.50% |        7839      1.56%     89.06% |        7840      1.56%     90.62% |        7839      1.56%     92.19% |        7840      1.56%     93.75% |        7839      1.56%     95.31% |        7840      1.56%     96.87% |        7840      1.56%     98.44% |        7840      1.56%    100.00% (Unspecified)
board.cache_hierarchy.ruby_system.L1Cache_Controller.NP.Store::total       501597                       (Unspecified)
board.cache_hierarchy.ruby_system.L1Cache_Controller.NP.Inv |        1241     99.52%     99.52% |           2      0.16%     99.68% |           1      0.08%     99.76% |           1      0.08%     99.84% |           0      0.00%     99.84% |           0      0.00%     99.84% |           0      0.00%     99.84% |           0      0.00%     99.84% |           0      0.00%     99.84% |           0      0.00%     99.84% |           0      0.00%     99.84% |           0      0.00%     99.84% |           0      0.00%     99.84% |           1      0.08%     99.92% |           1      0.08%    100.00% |           0      0.00%    100.00% (Unspecified)
board.cache_hierarchy.ruby_system.L1Cache_Controller.NP.Inv::total         1247                       (Unspecified)
board.cache_hierarchy.ruby_system.L1Cache_Controller.I.Load |         352     10.92%     10.92% |         258      8.00%     18.92% |         175      5.43%     24.35% |         181      5.61%     29.96% |         178      5.52%     35.48% |         240      7.44%     42.93% |         254      7.88%     50.81% |         173      5.37%     56.17% |         163      5.06%     61.23% |         183      5.68%     66.90% |         153      4.75%     71.65% |         151      4.68%     76.33% |         176      5.46%     81.79% |         173      5.37%     87.16% |         241      7.48%     94.63% |         173      5.37%    100.00% (Unspecified)
board.cache_hierarchy.ruby_system.L1Cache_Controller.I.Load::total         3224                       (Unspecified)
board.cache_hierarchy.ruby_system.L1Cache_Controller.I.Ifetch |         877     13.62%     13.62% |         368      5.72%     19.34% |         370      5.75%     25.09% |         370      5.75%     30.84% |         371      5.76%     36.60% |         371      5.76%     42.36% |         371      5.76%     48.13% |         371      5.76%     53.89% |         371      5.76%     59.66% |         371      5.76%     65.42% |         371      5.76%     71.18% |         371      5.76%     76.95% |         371      5.76%     82.71% |         371      5.76%     88.47% |         371      5.76%     94.24% |         371      5.76%    100.00% (Unspecified)
board.cache_hierarchy.ruby_system.L1Cache_Controller.I.Ifetch::total         6437                       (Unspecified)
board.cache_hierarchy.ruby_system.L1Cache_Controller.I.Store |          28      5.05%      5.05% |          34      6.13%     11.17% |          34      6.13%     17.30% |          28      5.05%     22.34% |          31      5.59%     27.93% |          53      9.55%     37.48% |          40      7.21%     44.68% |          38      6.85%     51.53% |          21      3.78%     55.32% |          27      4.86%     60.18% |          31      5.59%     65.77% |          33      5.95%     71.71% |          34      6.13%     77.84% |          36      6.49%     84.32% |          51      9.19%     93.51% |          36      6.49%    100.00% (Unspecified)
board.cache_hierarchy.ruby_system.L1Cache_Controller.I.Store::total          555                       (Unspecified)
board.cache_hierarchy.ruby_system.L1Cache_Controller.I.L1_Replacement |       23705      6.51%      6.51% |       22630      6.22%     12.73% |       22645      6.22%     18.96% |       22740      6.25%     25.20% |       22668      6.23%     31.43% |       22722      6.24%     37.68% |       22687      6.23%     43.91% |       22693      6.24%     50.15% |       22626      6.22%     56.37% |       22695      6.24%     62.60% |       22698      6.24%     68.84% |       22661      6.23%     75.07% |       22730      6.25%     81.31% |       22622      6.22%     87.53% |       22645      6.22%     93.75% |       22734      6.25%    100.00% (Unspecified)
board.cache_hierarchy.ruby_system.L1Cache_Controller.I.L1_Replacement::total       363901                       (Unspecified)
board.cache_hierarchy.ruby_system.L1Cache_Controller.S.Load |       14221      2.64%      2.64% |       44523      8.26%     10.90% |       44460      8.25%     19.16% |       44526      8.27%     27.42% |       41894      7.78%     35.20% |       37740      7.01%     42.20% |       41064      7.62%     49.83% |       37388      6.94%     56.77% |       34992      6.50%     63.26% |       36022      6.69%     69.95% |       25974      4.82%     74.77% |       29486      5.47%     80.24% |       26884      4.99%     85.23% |       25456      4.73%     89.96% |       22479      4.17%     94.13% |       31614      5.87%    100.00% (Unspecified)
board.cache_hierarchy.ruby_system.L1Cache_Controller.S.Load::total       538723                       (Unspecified)
board.cache_hierarchy.ruby_system.L1Cache_Controller.S.Ifetch |     9351319     68.31%     68.31% |      307239      2.24%     70.56% |      301256      2.20%     72.76% |      301357      2.20%     74.96% |      297501      2.17%     77.13% |      291633      2.13%     79.26% |      296972      2.17%     81.43% |      291829      2.13%     83.56% |      288700      2.11%     85.67% |      290640      2.12%     87.80% |      275925      2.02%     89.81% |      281606      2.06%     91.87% |      278115      2.03%     93.90% |      276359      2.02%     95.92% |      272233      1.99%     97.91% |      286347      2.09%    100.00% (Unspecified)
board.cache_hierarchy.ruby_system.L1Cache_Controller.S.Ifetch::total     13689031                       (Unspecified)
board.cache_hierarchy.ruby_system.L1Cache_Controller.S.Store |          15     31.91%     31.91% |           2      4.26%     36.17% |           2      4.26%     40.43% |           2      4.26%     44.68% |           2      4.26%     48.94% |           2      4.26%     53.19% |           2      4.26%     57.45% |           2      4.26%     61.70% |           2      4.26%     65.96% |           2      4.26%     70.21% |           2      4.26%     74.47% |           2      4.26%     78.72% |           2      4.26%     82.98% |           2      4.26%     87.23% |           3      6.38%     93.62% |           3      6.38%    100.00% (Unspecified)
board.cache_hierarchy.ruby_system.L1Cache_Controller.S.Store::total           47                       (Unspecified)
board.cache_hierarchy.ruby_system.L1Cache_Controller.S.Inv |        1648     16.77%     16.77% |         541      5.50%     22.27% |         543      5.52%     27.79% |         545      5.54%     33.34% |         548      5.57%     38.91% |         547      5.56%     44.48% |         546      5.55%     50.03% |         545      5.54%     55.57% |         546      5.55%     61.13% |         546      5.55%     66.68% |         546      5.55%     72.24% |         547      5.56%     77.80% |         547      5.56%     83.37% |         546      5.55%     88.92% |         545      5.54%     94.47% |         544      5.53%    100.00% (Unspecified)
board.cache_hierarchy.ruby_system.L1Cache_Controller.S.Inv::total         9830                       (Unspecified)
board.cache_hierarchy.ruby_system.L1Cache_Controller.S.L1_Replacement |        1608     99.63%     99.63% |           2      0.12%     99.75% |           1      0.06%     99.81% |           1      0.06%     99.88% |           0      0.00%     99.88% |           0      0.00%     99.88% |           0      0.00%     99.88% |           0      0.00%     99.88% |           0      0.00%     99.88% |           0      0.00%     99.88% |           0      0.00%     99.88% |           0      0.00%     99.88% |           0      0.00%     99.88% |           1      0.06%     99.94% |           1      0.06%    100.00% |           0      0.00%    100.00% (Unspecified)
board.cache_hierarchy.ruby_system.L1Cache_Controller.S.L1_Replacement::total         1614                       (Unspecified)
board.cache_hierarchy.ruby_system.L1Cache_Controller.E.Load |     9147010     67.35%     67.35% |      299732      2.21%     69.56% |      294967      2.17%     71.73% |      295794      2.18%     73.91% |      295094      2.17%     76.08% |      295658      2.18%     78.26% |      295743      2.18%     80.43% |      295401      2.18%     82.61% |      294883      2.17%     84.78% |      294808      2.17%     86.95% |      295815      2.18%     89.13% |      294671      2.17%     91.30% |      295541      2.18%     93.48% |      295149      2.17%     95.65% |      295755      2.18%     97.83% |      295270      2.17%    100.00% (Unspecified)
board.cache_hierarchy.ruby_system.L1Cache_Controller.E.Load::total     13581291                       (Unspecified)
board.cache_hierarchy.ruby_system.L1Cache_Controller.E.Store |         290     19.78%     19.78% |         112      7.64%     27.42% |          71      4.84%     32.26% |          77      5.25%     37.52% |          74      5.05%     42.56% |          94      6.41%     48.98% |         107      7.30%     56.28% |          68      4.64%     60.91% |          71      4.84%     65.76% |          78      5.32%     71.08% |          61      4.16%     75.24% |          59      4.02%     79.26% |          71      4.84%     84.11% |          68      4.64%     88.74% |          96      6.55%     95.29% |          69      4.71%    100.00% (Unspecified)
board.cache_hierarchy.ruby_system.L1Cache_Controller.E.Store::total         1466                       (Unspecified)
board.cache_hierarchy.ruby_system.L1Cache_Controller.E.Inv |       15359      6.28%      6.28% |       15398      6.29%     12.57% |       15342      6.27%     18.84% |       15426      6.31%     25.15% |       15326      6.26%     31.41% |       15362      6.28%     37.69% |       15428      6.31%     44.00% |       15291      6.25%     50.25% |       15186      6.21%     56.45% |       15342      6.27%     62.72% |       15160      6.20%     68.92% |       15171      6.20%     75.12% |       15229      6.22%     81.35% |       15119      6.18%     87.53% |       15165      6.20%     93.73% |       15352      6.27%    100.00% (Unspecified)
board.cache_hierarchy.ruby_system.L1Cache_Controller.E.Inv::total       244656                       (Unspecified)
board.cache_hierarchy.ruby_system.L1Cache_Controller.E.L1_Replacement |        1879     28.34%     28.34% |         366      5.52%     33.86% |         349      5.26%     39.13% |         257      3.88%     43.00% |         327      4.93%     47.93% |         275      4.15%     52.08% |         308      4.65%     56.73% |         305      4.60%     61.33% |         370      5.58%     66.91% |         303      4.57%     71.48% |         298      4.49%     75.97% |         336      5.07%     81.04% |         264      3.98%     85.02% |         376      5.67%     90.69% |         353      5.32%     96.02% |         264      3.98%    100.00% (Unspecified)
board.cache_hierarchy.ruby_system.L1Cache_Controller.E.L1_Replacement::total         6630                       (Unspecified)
board.cache_hierarchy.ruby_system.L1Cache_Controller.E.Fwd_GETX |           1    100.00%    100.00% |           0      0.00%    100.00% |           0      0.00%    100.00% |           0      0.00%    100.00% |           0      0.00%    100.00% |           0      0.00%    100.00% |           0      0.00%    100.00% |           0      0.00%    100.00% |           0      0.00%    100.00% |           0      0.00%    100.00% |           0      0.00%    100.00% |           0      0.00%    100.00% |           0      0.00%    100.00% |           0      0.00%    100.00% |           0      0.00%    100.00% |           0      0.00%    100.00% (Unspecified)
board.cache_hierarchy.ruby_system.L1Cache_Controller.E.Fwd_GETX::total            1                       (Unspecified)
board.cache_hierarchy.ruby_system.L1Cache_Controller.E.Fwd_GETS |           5     20.00%     20.00% |          16     64.00%     84.00% |           1      4.00%     88.00% |           1      4.00%     92.00% |           1      4.00%     96.00% |           1      4.00%    100.00% |           0      0.00%    100.00% |           0      0.00%    100.00% |           0      0.00%    100.00% |           0      0.00%    100.00% |           0      0.00%    100.00% |           0      0.00%    100.00% |           0      0.00%    100.00% |           0      0.00%    100.00% |           0      0.00%    100.00% |           0      0.00%    100.00% (Unspecified)
board.cache_hierarchy.ruby_system.L1Cache_Controller.E.Fwd_GETS::total           25                       (Unspecified)
board.cache_hierarchy.ruby_system.L1Cache_Controller.M.Load |     6453147     63.11%     63.11% |      250949      2.45%     65.56% |      251885      2.46%     68.03% |      251060      2.46%     70.48% |      251748      2.46%     72.94% |      251117      2.46%     75.40% |      251022      2.45%     77.86% |      251456      2.46%     80.31% |      251993      2.46%     82.78% |      252044      2.46%     85.24% |      251062      2.46%     87.70% |      252209      2.47%     90.17% |      251297      2.46%     92.62% |      251706      2.46%     95.08% |      251009      2.45%     97.54% |      251578      2.46%    100.00% (Unspecified)
board.cache_hierarchy.ruby_system.L1Cache_Controller.M.Load::total     10225282                       (Unspecified)
board.cache_hierarchy.ruby_system.L1Cache_Controller.M.Store |     8448879     76.61%     76.61% |      171908      1.56%     78.17% |      171959      1.56%     79.73% |      171945      1.56%     81.29% |      171940      1.56%     82.85% |      171907      1.56%     84.41% |      171915      1.56%     85.97% |      171947      1.56%     87.53% |      171965      1.56%     89.09% |      171960      1.56%     90.64% |      171970      1.56%     92.20% |      171974      1.56%     93.76% |      171949      1.56%     95.32% |      171939      1.56%     96.88% |      171910      1.56%     98.44% |      171944      1.56%    100.00% (Unspecified)
board.cache_hierarchy.ruby_system.L1Cache_Controller.M.Store::total     11028011                       (Unspecified)
board.cache_hierarchy.ruby_system.L1Cache_Controller.M.Inv |        8156      6.45%      6.45% |        7981      6.32%     12.77% |        7932      6.28%     19.05% |        7939      6.28%     25.33% |        7904      6.25%     31.58% |        7898      6.25%     37.83% |        7975      6.31%     44.14% |        7893      6.25%     50.39% |        7848      6.21%     56.60% |        7894      6.25%     62.85% |        7780      6.16%     69.00% |        7847      6.21%     75.21% |        7792      6.17%     81.38% |        7806      6.18%     87.55% |        7828      6.19%     93.75% |        7900      6.25%    100.00% (Unspecified)
board.cache_hierarchy.ruby_system.L1Cache_Controller.M.Inv::total       126373                       (Unspecified)
board.cache_hierarchy.ruby_system.L1Cache_Controller.M.L1_Replacement |      375853    100.00%    100.00% |           1      0.00%    100.00% |           1      0.00%    100.00% |           1      0.00%    100.00% |           1      0.00%    100.00% |           2      0.00%    100.00% |           1      0.00%    100.00% |           1      0.00%    100.00% |           0      0.00%    100.00% |           1      0.00%    100.00% |           0      0.00%    100.00% |           2      0.00%    100.00% |           2      0.00%    100.00% |           0      0.00%    100.00% |           1      0.00%    100.00% |           0      0.00%    100.00% (Unspecified)
board.cache_hierarchy.ruby_system.L1Cache_Controller.M.L1_Replacement::total       375867                       (Unspecified)
board.cache_hierarchy.ruby_system.L1Cache_Controller.M.Fwd_GETX |          63     48.46%     48.46% |           5      3.85%     52.31% |           5      3.85%     56.15% |           5      3.85%     60.00% |           5      3.85%     63.85% |           4      3.08%     66.92% |           5      3.85%     70.77% |           4      3.08%     73.85% |           5      3.85%     77.69% |           5      3.85%     81.54% |           5      3.85%     85.38% |           5      3.85%     89.23% |           5      3.85%     93.08% |           3      2.31%     95.38% |           4      3.08%     98.46% |           2      1.54%    100.00% (Unspecified)
board.cache_hierarchy.ruby_system.L1Cache_Controller.M.Fwd_GETX::total          130                       (Unspecified)
board.cache_hierarchy.ruby_system.L1Cache_Controller.M.Fwd_GETS |         154     98.09%     98.09% |           0      0.00%     98.09% |           0      0.00%     98.09% |           0      0.00%     98.09% |           0      0.00%     98.09% |           0      0.00%     98.09% |           0      0.00%     98.09% |           0      0.00%     98.09% |           0      0.00%     98.09% |           0      0.00%     98.09% |           0      0.00%     98.09% |           0      0.00%     98.09% |           0      0.00%     98.09% |           0      0.00%     98.09% |           2      1.27%     99.36% |           1      0.64%    100.00% (Unspecified)
board.cache_hierarchy.ruby_system.L1Cache_Controller.M.Fwd_GETS::total          157                       (Unspecified)
board.cache_hierarchy.ruby_system.L1Cache_Controller.IS.Data_Exclusive |       17717      6.95%      6.95% |       15903      6.24%     13.18% |       15803      6.20%     19.38% |       15811      6.20%     25.58% |       15806      6.20%     31.78% |       15870      6.22%     38.00% |       15882      6.23%     44.23% |       15804      6.20%     50.42% |       15791      6.19%     56.61% |       15813      6.20%     62.81% |       15781      6.19%     69.00% |       15780      6.19%     75.19% |       15803      6.20%     81.38% |       15802      6.20%     87.58% |       15871      6.22%     93.80% |       15804      6.20%    100.00% (Unspecified)
board.cache_hierarchy.ruby_system.L1Cache_Controller.IS.Data_Exclusive::total       255041                       (Unspecified)
board.cache_hierarchy.ruby_system.L1Cache_Controller.IS.DataS_fromL1 |           2      1.10%      1.10% |          19     10.44%     11.54% |          22     12.09%     23.63% |          14      7.69%     31.32% |          10      5.49%     36.81% |          10      5.49%     42.31% |          10      5.49%     47.80% |           9      4.95%     52.75% |          10      5.49%     58.24% |          10      5.49%     63.74% |          10      5.49%     69.23% |          11      6.04%     75.27% |          11      6.04%     81.32% |          11      6.04%     87.36% |          12      6.59%     93.96% |          11      6.04%    100.00% (Unspecified)
board.cache_hierarchy.ruby_system.L1Cache_Controller.IS.DataS_fromL1::total          182                       (Unspecified)
board.cache_hierarchy.ruby_system.L1Cache_Controller.IS.Data_all_Acks |        3576     29.80%     29.80% |         535      4.46%     34.26% |         550      4.58%     38.84% |         560      4.67%     43.51% |         566      4.72%     48.23% |         565      4.71%     52.93% |         565      4.71%     57.64% |         565      4.71%     62.35% |         565      4.71%     67.06% |         565      4.71%     71.77% |         565      4.71%     76.48% |         565      4.71%     81.18% |         565      4.71%     85.89% |         565      4.71%     90.60% |         566      4.72%     95.32% |         562      4.68%    100.00% (Unspecified)
board.cache_hierarchy.ruby_system.L1Cache_Controller.IS.Data_all_Acks::total        12000                       (Unspecified)
board.cache_hierarchy.ruby_system.L1Cache_Controller.IM.Data_all_Acks |      384031     76.48%     76.48% |        7874      1.57%     78.05% |        7873      1.57%     79.61% |        7868      1.57%     81.18% |        7870      1.57%     82.75% |        7893      1.57%     84.32% |        7879      1.57%     85.89% |        7878      1.57%     87.46% |        7860      1.57%     89.02% |        7867      1.57%     90.59% |        7870      1.57%     92.16% |        7873      1.57%     93.72% |        7873      1.57%     95.29% |        7876      1.57%     96.86% |        7891      1.57%     98.43% |        7876      1.57%    100.00% (Unspecified)
board.cache_hierarchy.ruby_system.L1Cache_Controller.IM.Data_all_Acks::total       502152                       (Unspecified)
board.cache_hierarchy.ruby_system.L1Cache_Controller.SM.Ack |          15     20.00%     20.00% |           2      2.67%     22.67% |           2      2.67%     25.33% |           2      2.67%     28.00% |           2      2.67%     30.67% |           2      2.67%     33.33% |           2      2.67%     36.00% |           2      2.67%     38.67% |           2      2.67%     41.33% |           2      2.67%     44.00% |           2      2.67%     46.67% |           2      2.67%     49.33% |           2      2.67%     52.00% |           2      2.67%     54.67% |          17     22.67%     77.33% |          17     22.67%    100.00% (Unspecified)
board.cache_hierarchy.ruby_system.L1Cache_Controller.SM.Ack::total           75                       (Unspecified)
board.cache_hierarchy.ruby_system.L1Cache_Controller.SM.Ack_all |          15     31.91%     31.91% |           2      4.26%     36.17% |           2      4.26%     40.43% |           2      4.26%     44.68% |           2      4.26%     48.94% |           2      4.26%     53.19% |           2      4.26%     57.45% |           2      4.26%     61.70% |           2      4.26%     65.96% |           2      4.26%     70.21% |           2      4.26%     74.47% |           2      4.26%     78.72% |           2      4.26%     82.98% |           2      4.26%     87.23% |           3      6.38%     93.62% |           3      6.38%    100.00% (Unspecified)
board.cache_hierarchy.ruby_system.L1Cache_Controller.SM.Ack_all::total           47                       (Unspecified)
board.cache_hierarchy.ruby_system.L1Cache_Controller.M_I.Inv |           0      0.00%      0.00% |           0      0.00%      0.00% |           0      0.00%      0.00% |           0      0.00%      0.00% |           0      0.00%      0.00% |           0      0.00%      0.00% |           0      0.00%      0.00% |           1     50.00%     50.00% |           0      0.00%     50.00% |           0      0.00%     50.00% |           0      0.00%     50.00% |           0      0.00%     50.00% |           0      0.00%     50.00% |           1     50.00%    100.00% |           0      0.00%    100.00% |           0      0.00%    100.00% (Unspecified)
board.cache_hierarchy.ruby_system.L1Cache_Controller.M_I.Inv::total            2                       (Unspecified)
board.cache_hierarchy.ruby_system.L1Cache_Controller.M_I.WB_Ack |      377732     98.75%     98.75% |         367      0.10%     98.85% |         350      0.09%     98.94% |         258      0.07%     99.01% |         328      0.09%     99.10% |         277      0.07%     99.17% |         309      0.08%     99.25% |         305      0.08%     99.33% |         370      0.10%     99.43% |         304      0.08%     99.50% |         298      0.08%     99.58% |         338      0.09%     99.67% |         266      0.07%     99.74% |         375      0.10%     99.84% |         354      0.09%     99.93% |         264      0.07%    100.00% (Unspecified)
board.cache_hierarchy.ruby_system.L1Cache_Controller.M_I.WB_Ack::total       382495                       (Unspecified)
board.cache_hierarchy.ruby_system.L1Cache_Controller.SINK_WB_ACK.WB_Ack |           0      0.00%      0.00% |           0      0.00%      0.00% |           0      0.00%      0.00% |           0      0.00%      0.00% |           0      0.00%      0.00% |           0      0.00%      0.00% |           0      0.00%      0.00% |           1     50.00%     50.00% |           0      0.00%     50.00% |           0      0.00%     50.00% |           0      0.00%     50.00% |           0      0.00%     50.00% |           0      0.00%     50.00% |           1     50.00%    100.00% |           0      0.00%    100.00% |           0      0.00%    100.00% (Unspecified)
board.cache_hierarchy.ruby_system.L1Cache_Controller.SINK_WB_ACK.WB_Ack::total            2                       (Unspecified)
board.cache_hierarchy.ruby_system.L2Cache_Controller.L1_GET_INSTR        12207      0.00%      0.00% (Unspecified)
board.cache_hierarchy.ruby_system.L2Cache_Controller.L1_GETS       256556      0.00%      0.00% (Unspecified)
board.cache_hierarchy.ruby_system.L2Cache_Controller.L1_GETX       502471      0.00%      0.00% (Unspecified)
board.cache_hierarchy.ruby_system.L2Cache_Controller.L1_UPGRADE           47      0.00%      0.00% (Unspecified)
board.cache_hierarchy.ruby_system.L2Cache_Controller.L1_PUTX       382495      0.00%      0.00% (Unspecified)
board.cache_hierarchy.ruby_system.L2Cache_Controller.L1_PUTX_old            4      0.00%      0.00% (Unspecified)
board.cache_hierarchy.ruby_system.L2Cache_Controller.L2_Replacement       375936      0.00%      0.00% (Unspecified)
board.cache_hierarchy.ruby_system.L2Cache_Controller.L2_Replacement_clean       380113      0.00%      0.00% (Unspecified)
board.cache_hierarchy.ruby_system.L2Cache_Controller.Mem_Data       760144      0.00%      0.00% (Unspecified)
board.cache_hierarchy.ruby_system.L2Cache_Controller.Mem_Ack       756049      0.00%      0.00% (Unspecified)
board.cache_hierarchy.ruby_system.L2Cache_Controller.WB_Data       126530      0.00%      0.00% (Unspecified)
board.cache_hierarchy.ruby_system.L2Cache_Controller.WB_Data_clean           27      0.00%      0.00% (Unspecified)
board.cache_hierarchy.ruby_system.L2Cache_Controller.Ack         8000      0.00%      0.00% (Unspecified)
board.cache_hierarchy.ruby_system.L2Cache_Controller.Ack_all       247658      0.00%      0.00% (Unspecified)
board.cache_hierarchy.ruby_system.L2Cache_Controller.Unblock          182      0.00%      0.00% (Unspecified)
board.cache_hierarchy.ruby_system.L2Cache_Controller.Exclusive_Unblock       757240      0.00%      0.00% (Unspecified)
board.cache_hierarchy.ruby_system.L2Cache_Controller.NP.L1_GET_INSTR         3494      0.00%      0.00% (Unspecified)
board.cache_hierarchy.ruby_system.L2Cache_Controller.NP.L1_GETS       254676      0.00%      0.00% (Unspecified)
board.cache_hierarchy.ruby_system.L2Cache_Controller.NP.L1_GETX       501974      0.00%      0.00% (Unspecified)
board.cache_hierarchy.ruby_system.L2Cache_Controller.NP.L1_PUTX_old            2      0.00%      0.00% (Unspecified)
board.cache_hierarchy.ruby_system.L2Cache_Controller.SS.L1_GET_INSTR         3784      0.00%      0.00% (Unspecified)
board.cache_hierarchy.ruby_system.L2Cache_Controller.SS.L1_GETS          371      0.00%      0.00% (Unspecified)
board.cache_hierarchy.ruby_system.L2Cache_Controller.SS.L1_GETX            2      0.00%      0.00% (Unspecified)
board.cache_hierarchy.ruby_system.L2Cache_Controller.SS.L1_UPGRADE           47      0.00%      0.00% (Unspecified)
board.cache_hierarchy.ruby_system.L2Cache_Controller.SS.L2_Replacement          110      0.00%      0.00% (Unspecified)
board.cache_hierarchy.ruby_system.L2Cache_Controller.SS.L2_Replacement_clean         2892      0.00%      0.00% (Unspecified)
board.cache_hierarchy.ruby_system.L2Cache_Controller.M.L1_GET_INSTR            1      0.00%      0.00% (Unspecified)
board.cache_hierarchy.ruby_system.L2Cache_Controller.M.L1_GETS          370      0.00%      0.00% (Unspecified)
board.cache_hierarchy.ruby_system.L2Cache_Controller.M.L1_GETX           45      0.00%      0.00% (Unspecified)
board.cache_hierarchy.ruby_system.L2Cache_Controller.M.L2_Replacement       375785      0.00%      0.00% (Unspecified)
board.cache_hierarchy.ruby_system.L2Cache_Controller.M.L2_Replacement_clean         6231      0.00%      0.00% (Unspecified)
board.cache_hierarchy.ruby_system.L2Cache_Controller.MT.L1_GETS          182      0.00%      0.00% (Unspecified)
board.cache_hierarchy.ruby_system.L2Cache_Controller.MT.L1_GETX          131      0.00%      0.00% (Unspecified)
board.cache_hierarchy.ruby_system.L2Cache_Controller.MT.L1_PUTX       382495      0.00%      0.00% (Unspecified)
board.cache_hierarchy.ruby_system.L2Cache_Controller.MT.L2_Replacement           41      0.00%      0.00% (Unspecified)
board.cache_hierarchy.ruby_system.L2Cache_Controller.MT.L2_Replacement_clean       370990      0.00%      0.00% (Unspecified)
board.cache_hierarchy.ruby_system.L2Cache_Controller.M_I.L1_GET_INSTR          625      0.00%      0.00% (Unspecified)
board.cache_hierarchy.ruby_system.L2Cache_Controller.M_I.L1_GETS          827      0.00%      0.00% (Unspecified)
board.cache_hierarchy.ruby_system.L2Cache_Controller.M_I.L1_GETX          207      0.00%      0.00% (Unspecified)
board.cache_hierarchy.ruby_system.L2Cache_Controller.M_I.Mem_Ack       756049      0.00%      0.00% (Unspecified)
board.cache_hierarchy.ruby_system.L2Cache_Controller.MT_I.WB_Data           40      0.00%      0.00% (Unspecified)
board.cache_hierarchy.ruby_system.L2Cache_Controller.MT_I.Ack_all            1      0.00%      0.00% (Unspecified)
board.cache_hierarchy.ruby_system.L2Cache_Controller.MCT_I.L1_GETS            1      0.00%      0.00% (Unspecified)
board.cache_hierarchy.ruby_system.L2Cache_Controller.MCT_I.L1_PUTX_old            2      0.00%      0.00% (Unspecified)
board.cache_hierarchy.ruby_system.L2Cache_Controller.MCT_I.WB_Data       126333      0.00%      0.00% (Unspecified)
board.cache_hierarchy.ruby_system.L2Cache_Controller.MCT_I.WB_Data_clean            2      0.00%      0.00% (Unspecified)
board.cache_hierarchy.ruby_system.L2Cache_Controller.MCT_I.Ack_all       244655      0.00%      0.00% (Unspecified)
board.cache_hierarchy.ruby_system.L2Cache_Controller.I_I.L1_GET_INSTR           12      0.00%      0.00% (Unspecified)
board.cache_hierarchy.ruby_system.L2Cache_Controller.I_I.Ack         7808      0.00%      0.00% (Unspecified)
board.cache_hierarchy.ruby_system.L2Cache_Controller.I_I.Ack_all         2892      0.00%      0.00% (Unspecified)
board.cache_hierarchy.ruby_system.L2Cache_Controller.S_I.Ack          192      0.00%      0.00% (Unspecified)
board.cache_hierarchy.ruby_system.L2Cache_Controller.S_I.Ack_all          110      0.00%      0.00% (Unspecified)
board.cache_hierarchy.ruby_system.L2Cache_Controller.ISS.L1_GETS            5      0.00%      0.00% (Unspecified)
board.cache_hierarchy.ruby_system.L2Cache_Controller.ISS.Mem_Data       254671      0.00%      0.00% (Unspecified)
board.cache_hierarchy.ruby_system.L2Cache_Controller.IS.L1_GET_INSTR         4291      0.00%      0.00% (Unspecified)
board.cache_hierarchy.ruby_system.L2Cache_Controller.IS.L1_GETS           49      0.00%      0.00% (Unspecified)
board.cache_hierarchy.ruby_system.L2Cache_Controller.IS.Mem_Data         3499      0.00%      0.00% (Unspecified)
board.cache_hierarchy.ruby_system.L2Cache_Controller.IM.L1_GETX           14      0.00%      0.00% (Unspecified)
board.cache_hierarchy.ruby_system.L2Cache_Controller.IM.Mem_Data       501974      0.00%      0.00% (Unspecified)
board.cache_hierarchy.ruby_system.L2Cache_Controller.SS_MB.L1_GETS           21      0.00%      0.00% (Unspecified)
board.cache_hierarchy.ruby_system.L2Cache_Controller.SS_MB.Exclusive_Unblock           49      0.00%      0.00% (Unspecified)
board.cache_hierarchy.ruby_system.L2Cache_Controller.MT_MB.L1_GETS            2      0.00%      0.00% (Unspecified)
board.cache_hierarchy.ruby_system.L2Cache_Controller.MT_MB.L1_GETX           98      0.00%      0.00% (Unspecified)
board.cache_hierarchy.ruby_system.L2Cache_Controller.MT_MB.Exclusive_Unblock       757191      0.00%      0.00% (Unspecified)
board.cache_hierarchy.ruby_system.L2Cache_Controller.MT_IIB.L1_GETS           52      0.00%      0.00% (Unspecified)
board.cache_hierarchy.ruby_system.L2Cache_Controller.MT_IIB.WB_Data          153      0.00%      0.00% (Unspecified)
board.cache_hierarchy.ruby_system.L2Cache_Controller.MT_IIB.WB_Data_clean           25      0.00%      0.00% (Unspecified)
board.cache_hierarchy.ruby_system.L2Cache_Controller.MT_IIB.Unblock            4      0.00%      0.00% (Unspecified)
board.cache_hierarchy.ruby_system.L2Cache_Controller.MT_IB.WB_Data            4      0.00%      0.00% (Unspecified)
board.cache_hierarchy.ruby_system.L2Cache_Controller.MT_SB.Unblock          178      0.00%      0.00% (Unspecified)
board.cache_hierarchy.ruby_system.RequestType.LD.latency_hist_seqr::bucket_size          256                       (Unspecified)
board.cache_hierarchy.ruby_system.RequestType.LD.latency_hist_seqr::max_bucket         2559                       (Unspecified)
board.cache_hierarchy.ruby_system.RequestType.LD.latency_hist_seqr::samples     24600949                       (Unspecified)
board.cache_hierarchy.ruby_system.RequestType.LD.latency_hist_seqr::mean     4.754942                       (Unspecified)
board.cache_hierarchy.ruby_system.RequestType.LD.latency_hist_seqr::gmean     1.062292                       (Unspecified)
board.cache_hierarchy.ruby_system.RequestType.LD.latency_hist_seqr::stdev    40.234343                       (Unspecified)
board.cache_hierarchy.ruby_system.RequestType.LD.latency_hist_seqr |    24395979     99.17%     99.17% |      174528      0.71%     99.88% |       24578      0.10%     99.98% |        1694      0.01%     99.98% |        2901      0.01%     99.99% |        1200      0.00%    100.00% |          69      0.00%    100.00% |           0      0.00%    100.00% |           0      0.00%    100.00% |           0      0.00%    100.00% (Unspecified)
board.cache_hierarchy.ruby_system.RequestType.LD.latency_hist_seqr::total     24600949                       (Unspecified)
board.cache_hierarchy.ruby_system.RequestType.LD.hit_latency_hist_seqr::bucket_size            1                       (Unspecified)
board.cache_hierarchy.ruby_system.RequestType.LD.hit_latency_hist_seqr::max_bucket            9                       (Unspecified)
board.cache_hierarchy.ruby_system.RequestType.LD.hit_latency_hist_seqr::samples     24345296                       (Unspecified)
board.cache_hierarchy.ruby_system.RequestType.LD.hit_latency_hist_seqr::mean            1                       (Unspecified)
board.cache_hierarchy.ruby_system.RequestType.LD.hit_latency_hist_seqr::gmean            1                       (Unspecified)
board.cache_hierarchy.ruby_system.RequestType.LD.hit_latency_hist_seqr |           0      0.00%      0.00% |    24345296    100.00%    100.00% |           0      0.00%    100.00% |           0      0.00%    100.00% |           0      0.00%    100.00% |           0      0.00%    100.00% |           0      0.00%    100.00% |           0      0.00%    100.00% |           0      0.00%    100.00% |           0      0.00%    100.00% (Unspecified)
board.cache_hierarchy.ruby_system.RequestType.LD.hit_latency_hist_seqr::total     24345296                       (Unspecified)
board.cache_hierarchy.ruby_system.RequestType.LD.miss_latency_hist_seqr::bucket_size          256                       (Unspecified)
board.cache_hierarchy.ruby_system.RequestType.LD.miss_latency_hist_seqr::max_bucket         2559                       (Unspecified)
board.cache_hierarchy.ruby_system.RequestType.LD.miss_latency_hist_seqr::samples       255653                       (Unspecified)
board.cache_hierarchy.ruby_system.RequestType.LD.miss_latency_hist_seqr::mean   362.330119                       (Unspecified)
board.cache_hierarchy.ruby_system.RequestType.LD.miss_latency_hist_seqr::gmean   335.284945                       (Unspecified)
board.cache_hierarchy.ruby_system.RequestType.LD.miss_latency_hist_seqr::stdev   163.007206                       (Unspecified)
board.cache_hierarchy.ruby_system.RequestType.LD.miss_latency_hist_seqr |       50683     19.82%     19.82% |      174528     68.27%     88.09% |       24578      9.61%     97.71% |        1694      0.66%     98.37% |        2901      1.13%     99.50% |        1200      0.47%     99.97% |          69      0.03%    100.00% |           0      0.00%    100.00% |           0      0.00%    100.00% |           0      0.00%    100.00% (Unspecified)
board.cache_hierarchy.ruby_system.RequestType.LD.miss_latency_hist_seqr::total       255653                       (Unspecified)
board.cache_hierarchy.ruby_system.RequestType.ST.latency_hist_seqr::bucket_size          256                       (Unspecified)
board.cache_hierarchy.ruby_system.RequestType.ST.latency_hist_seqr::max_bucket         2559                       (Unspecified)
board.cache_hierarchy.ruby_system.RequestType.ST.latency_hist_seqr::samples      7528748                       (Unspecified)
board.cache_hierarchy.ruby_system.RequestType.ST.latency_hist_seqr::mean    16.094261                       (Unspecified)
board.cache_hierarchy.ruby_system.RequestType.ST.latency_hist_seqr::gmean     1.422060                       (Unspecified)
board.cache_hierarchy.ruby_system.RequestType.ST.latency_hist_seqr::stdev    69.744190                       (Unspecified)
board.cache_hierarchy.ruby_system.RequestType.ST.latency_hist_seqr |     7404096     98.34%     98.34% |       85538      1.14%     99.48% |       31922      0.42%     99.90% |        5043      0.07%     99.97% |        1408      0.02%     99.99% |         488      0.01%    100.00% |         253      0.00%    100.00% |           0      0.00%    100.00% |           0      0.00%    100.00% |           0      0.00%    100.00% (Unspecified)
board.cache_hierarchy.ruby_system.RequestType.ST.latency_hist_seqr::total      7528748                       (Unspecified)
board.cache_hierarchy.ruby_system.RequestType.ST.hit_latency_hist_seqr::bucket_size            1                       (Unspecified)
board.cache_hierarchy.ruby_system.RequestType.ST.hit_latency_hist_seqr::max_bucket            9                       (Unspecified)
board.cache_hierarchy.ruby_system.RequestType.ST.hit_latency_hist_seqr::samples      7027365                       (Unspecified)
board.cache_hierarchy.ruby_system.RequestType.ST.hit_latency_hist_seqr::mean     1.000005                       (Unspecified)
board.cache_hierarchy.ruby_system.RequestType.ST.hit_latency_hist_seqr::gmean     1.000004                       (Unspecified)
board.cache_hierarchy.ruby_system.RequestType.ST.hit_latency_hist_seqr::stdev     0.002295                       (Unspecified)
board.cache_hierarchy.ruby_system.RequestType.ST.hit_latency_hist_seqr |           0      0.00%      0.00% |     7027328    100.00%    100.00% |          37      0.00%    100.00% |           0      0.00%    100.00% |           0      0.00%    100.00% |           0      0.00%    100.00% |           0      0.00%    100.00% |           0      0.00%    100.00% |           0      0.00%    100.00% |           0      0.00%    100.00% (Unspecified)
board.cache_hierarchy.ruby_system.RequestType.ST.hit_latency_hist_seqr::total      7027365                       (Unspecified)
board.cache_hierarchy.ruby_system.RequestType.ST.miss_latency_hist_seqr::bucket_size          256                       (Unspecified)
board.cache_hierarchy.ruby_system.RequestType.ST.miss_latency_hist_seqr::max_bucket         2559                       (Unspecified)
board.cache_hierarchy.ruby_system.RequestType.ST.miss_latency_hist_seqr::samples       501383                       (Unspecified)
board.cache_hierarchy.ruby_system.RequestType.ST.miss_latency_hist_seqr::mean   227.654781                       (Unspecified)
board.cache_hierarchy.ruby_system.RequestType.ST.miss_latency_hist_seqr::gmean   197.782650                       (Unspecified)
board.cache_hierarchy.ruby_system.RequestType.ST.miss_latency_hist_seqr::stdev   158.399059                       (Unspecified)
board.cache_hierarchy.ruby_system.RequestType.ST.miss_latency_hist_seqr |      376731     75.14%     75.14% |       85538     17.06%     92.20% |       31922      6.37%     98.57% |        5043      1.01%     99.57% |        1408      0.28%     99.85% |         488      0.10%     99.95% |         253      0.05%    100.00% |           0      0.00%    100.00% |           0      0.00%    100.00% |           0      0.00%    100.00% (Unspecified)
board.cache_hierarchy.ruby_system.RequestType.ST.miss_latency_hist_seqr::total       501383                       (Unspecified)
board.cache_hierarchy.ruby_system.RequestType.IFETCH.latency_hist_seqr::bucket_size          256                       (Unspecified)
board.cache_hierarchy.ruby_system.RequestType.IFETCH.latency_hist_seqr::max_bucket         2559                       (Unspecified)
board.cache_hierarchy.ruby_system.RequestType.IFETCH.latency_hist_seqr::samples     13700601                       (Unspecified)
board.cache_hierarchy.ruby_system.RequestType.IFETCH.latency_hist_seqr::mean     1.131389                       (Unspecified)
board.cache_hierarchy.ruby_system.RequestType.IFETCH.latency_hist_seqr::gmean     1.003698                       (Unspecified)
board.cache_hierarchy.ruby_system.RequestType.IFETCH.latency_hist_seqr::stdev     6.567513                       (Unspecified)
board.cache_hierarchy.ruby_system.RequestType.IFETCH.latency_hist_seqr |    13698404     99.98%     99.98% |        1788      0.01%    100.00% |         325      0.00%    100.00% |          30      0.00%    100.00% |          37      0.00%    100.00% |          17      0.00%    100.00% |           0      0.00%    100.00% |           0      0.00%    100.00% |           0      0.00%    100.00% |           0      0.00%    100.00% (Unspecified)
board.cache_hierarchy.ruby_system.RequestType.IFETCH.latency_hist_seqr::total     13700601                       (Unspecified)
board.cache_hierarchy.ruby_system.RequestType.IFETCH.hit_latency_hist_seqr::bucket_size            1                       (Unspecified)
board.cache_hierarchy.ruby_system.RequestType.IFETCH.hit_latency_hist_seqr::max_bucket            9                       (Unspecified)
board.cache_hierarchy.ruby_system.RequestType.IFETCH.hit_latency_hist_seqr::samples     13689031                       (Unspecified)
board.cache_hierarchy.ruby_system.RequestType.IFETCH.hit_latency_hist_seqr::mean            1                       (Unspecified)
board.cache_hierarchy.ruby_system.RequestType.IFETCH.hit_latency_hist_seqr::gmean            1                       (Unspecified)
board.cache_hierarchy.ruby_system.RequestType.IFETCH.hit_latency_hist_seqr |           0      0.00%      0.00% |    13689031    100.00%    100.00% |           0      0.00%    100.00% |           0      0.00%    100.00% |           0      0.00%    100.00% |           0      0.00%    100.00% |           0      0.00%    100.00% |           0      0.00%    100.00% |           0      0.00%    100.00% |           0      0.00%    100.00% (Unspecified)
board.cache_hierarchy.ruby_system.RequestType.IFETCH.hit_latency_hist_seqr::total     13689031                       (Unspecified)
board.cache_hierarchy.ruby_system.RequestType.IFETCH.miss_latency_hist_seqr::bucket_size          256                       (Unspecified)
board.cache_hierarchy.ruby_system.RequestType.IFETCH.miss_latency_hist_seqr::max_bucket         2559                       (Unspecified)
board.cache_hierarchy.ruby_system.RequestType.IFETCH.miss_latency_hist_seqr::samples        11570                       (Unspecified)
board.cache_hierarchy.ruby_system.RequestType.IFETCH.miss_latency_hist_seqr::mean   156.584183                       (Unspecified)
board.cache_hierarchy.ruby_system.RequestType.IFETCH.miss_latency_hist_seqr::gmean    79.070442                       (Unspecified)
board.cache_hierarchy.ruby_system.RequestType.IFETCH.miss_latency_hist_seqr::stdev   163.985682                       (Unspecified)
board.cache_hierarchy.ruby_system.RequestType.IFETCH.miss_latency_hist_seqr |        9373     81.01%     81.01% |        1788     15.45%     96.46% |         325      2.81%     99.27% |          30      0.26%     99.53% |          37      0.32%     99.85% |          17      0.15%    100.00% |           0      0.00%    100.00% |           0      0.00%    100.00% |           0      0.00%    100.00% |           0      0.00%    100.00% (Unspecified)
board.cache_hierarchy.ruby_system.RequestType.IFETCH.miss_latency_hist_seqr::total        11570                       (Unspecified)
board.cache_hierarchy.ruby_system.RequestType.RMW_Read.latency_hist_seqr::bucket_size          128                       (Unspecified)
board.cache_hierarchy.ruby_system.RequestType.RMW_Read.latency_hist_seqr::max_bucket         1279                       (Unspecified)
board.cache_hierarchy.ruby_system.RequestType.RMW_Read.latency_hist_seqr::samples      4002270                       (Unspecified)
board.cache_hierarchy.ruby_system.RequestType.RMW_Read.latency_hist_seqr::mean     1.018170                       (Unspecified)
board.cache_hierarchy.ruby_system.RequestType.RMW_Read.latency_hist_seqr::gmean     1.000833                       (Unspecified)
board.cache_hierarchy.ruby_system.RequestType.RMW_Read.latency_hist_seqr::stdev     1.599853                       (Unspecified)
board.cache_hierarchy.ruby_system.RequestType.RMW_Read.latency_hist_seqr |     4002020     99.99%     99.99% |         244      0.01%    100.00% |           3      0.00%    100.00% |           0      0.00%    100.00% |           0      0.00%    100.00% |           1      0.00%    100.00% |           2      0.00%    100.00% |           0      0.00%    100.00% |           0      0.00%    100.00% |           0      0.00%    100.00% (Unspecified)
board.cache_hierarchy.ruby_system.RequestType.RMW_Read.latency_hist_seqr::total      4002270                       (Unspecified)
board.cache_hierarchy.ruby_system.RequestType.RMW_Read.hit_latency_hist_seqr::bucket_size            1                       (Unspecified)
board.cache_hierarchy.ruby_system.RequestType.RMW_Read.hit_latency_hist_seqr::max_bucket            9                       (Unspecified)
board.cache_hierarchy.ruby_system.RequestType.RMW_Read.hit_latency_hist_seqr::samples      4001523                       (Unspecified)
board.cache_hierarchy.ruby_system.RequestType.RMW_Read.hit_latency_hist_seqr::mean            1                       (Unspecified)
board.cache_hierarchy.ruby_system.RequestType.RMW_Read.hit_latency_hist_seqr::gmean            1                       (Unspecified)
board.cache_hierarchy.ruby_system.RequestType.RMW_Read.hit_latency_hist_seqr |           0      0.00%      0.00% |     4001523    100.00%    100.00% |           0      0.00%    100.00% |           0      0.00%    100.00% |           0      0.00%    100.00% |           0      0.00%    100.00% |           0      0.00%    100.00% |           0      0.00%    100.00% |           0      0.00%    100.00% |           0      0.00%    100.00% (Unspecified)
board.cache_hierarchy.ruby_system.RequestType.RMW_Read.hit_latency_hist_seqr::total      4001523                       (Unspecified)
board.cache_hierarchy.ruby_system.RequestType.RMW_Read.miss_latency_hist_seqr::bucket_size          128                       (Unspecified)
board.cache_hierarchy.ruby_system.RequestType.RMW_Read.miss_latency_hist_seqr::max_bucket         1279                       (Unspecified)
board.cache_hierarchy.ruby_system.RequestType.RMW_Read.miss_latency_hist_seqr::samples          747                       (Unspecified)
board.cache_hierarchy.ruby_system.RequestType.RMW_Read.miss_latency_hist_seqr::mean    98.353414                       (Unspecified)
board.cache_hierarchy.ruby_system.RequestType.RMW_Read.miss_latency_hist_seqr::gmean    86.448654                       (Unspecified)
board.cache_hierarchy.ruby_system.RequestType.RMW_Read.miss_latency_hist_seqr::stdev    65.139762                       (Unspecified)
board.cache_hierarchy.ruby_system.RequestType.RMW_Read.miss_latency_hist_seqr |         497     66.53%     66.53% |         244     32.66%     99.20% |           3      0.40%     99.60% |           0      0.00%     99.60% |           0      0.00%     99.60% |           1      0.13%     99.73% |           2      0.27%    100.00% |           0      0.00%    100.00% |           0      0.00%    100.00% |           0      0.00%    100.00% (Unspecified)
board.cache_hierarchy.ruby_system.RequestType.RMW_Read.miss_latency_hist_seqr::total          747                       (Unspecified)
board.cache_hierarchy.ruby_system.RequestType.Locked_RMW_Read.latency_hist_seqr::bucket_size           64                       (Unspecified)
board.cache_hierarchy.ruby_system.RequestType.Locked_RMW_Read.latency_hist_seqr::max_bucket          639                       (Unspecified)
board.cache_hierarchy.ruby_system.RequestType.Locked_RMW_Read.latency_hist_seqr::samples          329                       (Unspecified)
board.cache_hierarchy.ruby_system.RequestType.Locked_RMW_Read.latency_hist_seqr::mean    20.139818                       (Unspecified)
board.cache_hierarchy.ruby_system.RequestType.Locked_RMW_Read.latency_hist_seqr::gmean     2.185324                       (Unspecified)
board.cache_hierarchy.ruby_system.RequestType.Locked_RMW_Read.latency_hist_seqr::stdev    65.657546                       (Unspecified)
board.cache_hierarchy.ruby_system.RequestType.Locked_RMW_Read.latency_hist_seqr |         307     93.31%     93.31% |           0      0.00%     93.31% |           4      1.22%     94.53% |          12      3.65%     98.18% |           4      1.22%     99.39% |           0      0.00%     99.39% |           0      0.00%     99.39% |           2      0.61%    100.00% |           0      0.00%    100.00% |           0      0.00%    100.00% (Unspecified)
board.cache_hierarchy.ruby_system.RequestType.Locked_RMW_Read.latency_hist_seqr::total          329                       (Unspecified)
board.cache_hierarchy.ruby_system.RequestType.Locked_RMW_Read.hit_latency_hist_seqr::bucket_size            1                       (Unspecified)
board.cache_hierarchy.ruby_system.RequestType.Locked_RMW_Read.hit_latency_hist_seqr::max_bucket            9                       (Unspecified)
board.cache_hierarchy.ruby_system.RequestType.Locked_RMW_Read.hit_latency_hist_seqr::samples          260                       (Unspecified)
board.cache_hierarchy.ruby_system.RequestType.Locked_RMW_Read.hit_latency_hist_seqr::mean            1                       (Unspecified)
board.cache_hierarchy.ruby_system.RequestType.Locked_RMW_Read.hit_latency_hist_seqr::gmean            1                       (Unspecified)
board.cache_hierarchy.ruby_system.RequestType.Locked_RMW_Read.hit_latency_hist_seqr |           0      0.00%      0.00% |         260    100.00%    100.00% |           0      0.00%    100.00% |           0      0.00%    100.00% |           0      0.00%    100.00% |           0      0.00%    100.00% |           0      0.00%    100.00% |           0      0.00%    100.00% |           0      0.00%    100.00% |           0      0.00%    100.00% (Unspecified)
board.cache_hierarchy.ruby_system.RequestType.Locked_RMW_Read.hit_latency_hist_seqr::total          260                       (Unspecified)
board.cache_hierarchy.ruby_system.RequestType.Locked_RMW_Read.miss_latency_hist_seqr::bucket_size           64                       (Unspecified)
board.cache_hierarchy.ruby_system.RequestType.Locked_RMW_Read.miss_latency_hist_seqr::max_bucket          639                       (Unspecified)
board.cache_hierarchy.ruby_system.RequestType.Locked_RMW_Read.miss_latency_hist_seqr::samples           69                       (Unspecified)
board.cache_hierarchy.ruby_system.RequestType.Locked_RMW_Read.miss_latency_hist_seqr::mean    92.260870                       (Unspecified)
board.cache_hierarchy.ruby_system.RequestType.Locked_RMW_Read.miss_latency_hist_seqr::gmean    41.576756                       (Unspecified)
board.cache_hierarchy.ruby_system.RequestType.Locked_RMW_Read.miss_latency_hist_seqr::stdev   118.807389                       (Unspecified)
board.cache_hierarchy.ruby_system.RequestType.Locked_RMW_Read.miss_latency_hist_seqr |          47     68.12%     68.12% |           0      0.00%     68.12% |           4      5.80%     73.91% |          12     17.39%     91.30% |           4      5.80%     97.10% |           0      0.00%     97.10% |           0      0.00%     97.10% |           2      2.90%    100.00% |           0      0.00%    100.00% |           0      0.00%    100.00% (Unspecified)
board.cache_hierarchy.ruby_system.RequestType.Locked_RMW_Read.miss_latency_hist_seqr::total           69                       (Unspecified)
board.cache_hierarchy.ruby_system.RequestType.Locked_RMW_Write.latency_hist_seqr::bucket_size            1                       (Unspecified)
board.cache_hierarchy.ruby_system.RequestType.Locked_RMW_Write.latency_hist_seqr::max_bucket            9                       (Unspecified)
board.cache_hierarchy.ruby_system.RequestType.Locked_RMW_Write.latency_hist_seqr::samples          329                       (Unspecified)
board.cache_hierarchy.ruby_system.RequestType.Locked_RMW_Write.latency_hist_seqr::mean            1                       (Unspecified)
board.cache_hierarchy.ruby_system.RequestType.Locked_RMW_Write.latency_hist_seqr::gmean            1                       (Unspecified)
board.cache_hierarchy.ruby_system.RequestType.Locked_RMW_Write.latency_hist_seqr |           0      0.00%      0.00% |         329    100.00%    100.00% |           0      0.00%    100.00% |           0      0.00%    100.00% |           0      0.00%    100.00% |           0      0.00%    100.00% |           0      0.00%    100.00% |           0      0.00%    100.00% |           0      0.00%    100.00% |           0      0.00%    100.00% (Unspecified)
board.cache_hierarchy.ruby_system.RequestType.Locked_RMW_Write.latency_hist_seqr::total          329                       (Unspecified)
board.cache_hierarchy.ruby_system.RequestType.Locked_RMW_Write.hit_latency_hist_seqr::bucket_size            1                       (Unspecified)
board.cache_hierarchy.ruby_system.RequestType.Locked_RMW_Write.hit_latency_hist_seqr::max_bucket            9                       (Unspecified)
board.cache_hierarchy.ruby_system.RequestType.Locked_RMW_Write.hit_latency_hist_seqr::samples          329                       (Unspecified)
board.cache_hierarchy.ruby_system.RequestType.Locked_RMW_Write.hit_latency_hist_seqr::mean            1                       (Unspecified)
board.cache_hierarchy.ruby_system.RequestType.Locked_RMW_Write.hit_latency_hist_seqr::gmean            1                       (Unspecified)
board.cache_hierarchy.ruby_system.RequestType.Locked_RMW_Write.hit_latency_hist_seqr |           0      0.00%      0.00% |         329    100.00%    100.00% |           0      0.00%    100.00% |           0      0.00%    100.00% |           0      0.00%    100.00% |           0      0.00%    100.00% |           0      0.00%    100.00% |           0      0.00%    100.00% |           0      0.00%    100.00% |           0      0.00%    100.00% (Unspecified)
board.cache_hierarchy.ruby_system.RequestType.Locked_RMW_Write.hit_latency_hist_seqr::total          329                       (Unspecified)
[...]
board.processor.cores9.core.commitStats0.committedInstType::FloatMultAcc            0      0.00%     52.91% # Class of committed instruction. (Count)
board.processor.cores9.core.commitStats0.committedInstType::FloatDiv            0      0.00%     52.91% # Class of committed instruction. (Count)
board.processor.cores9.core.commitStats0.committedInstType::FloatMisc            0      0.00%     52.91% # Class of committed instruction. (Count)
board.processor.cores9.core.commitStats0.committedInstType::FloatSqrt            0      0.00%     52.91% # Class of committed instruction. (Count)
board.processor.cores9.core.commitStats0.committedInstType::SimdAdd            0      0.00%     52.91% # Class of committed instruction. (Count)
board.processor.cores9.core.commitStats0.committedInstType::SimdAddAcc            0      0.00%     52.91% # Class of committed instruction. (Count)
board.processor.cores9.core.commitStats0.committedInstType::SimdAlu           16      0.00%     52.91% # Class of committed instruction. (Count)
board.processor.cores9.core.commitStats0.committedInstType::SimdCmp            0      0.00%     52.91% # Class of committed instruction. (Count)
board.processor.cores9.core.commitStats0.committedInstType::SimdCvt           20      0.00%     52.91% # Class of committed instruction. (Count)
board.processor.cores9.core.commitStats0.committedInstType::SimdMisc           25      0.00%     52.91% # Class of committed instruction. (Count)
board.processor.cores9.core.commitStats0.committedInstType::SimdMult            0      0.00%     52.91% # Class of committed instruction. (Count)
board.processor.cores9.core.commitStats0.committedInstType::SimdMultAcc            0      0.00%     52.91% # Class of committed instruction. (Count)
board.processor.cores9.core.commitStats0.committedInstType::SimdMatMultAcc            0      0.00%     52.91% # Class of committed instruction. (Count)
board.processor.cores9.core.commitStats0.committedInstType::SimdShift            0      0.00%     52.91% # Class of committed instruction. (Count)
board.processor.cores9.core.commitStats0.committedInstType::SimdShiftAcc            0      0.00%     52.91% # Class of committed instruction. (Count)
board.processor.cores9.core.commitStats0.committedInstType::SimdDiv            0      0.00%     52.91% # Class of committed instruction. (Count)
board.processor.cores9.core.commitStats0.committedInstType::SimdSqrt            0      0.00%     52.91% # Class of committed instruction. (Count)
board.processor.cores9.core.commitStats0.committedInstType::SimdFloatAdd        62500      3.08%     55.99% # Class of committed instruction. (Count)
board.processor.cores9.core.commitStats0.committedInstType::SimdFloatAlu            0      0.00%     55.99% # Class of committed instruction. (Count)
board.processor.cores9.core.commitStats0.committedInstType::SimdFloatCmp            0      0.00%     55.99% # Class of committed instruction. (Count)
board.processor.cores9.core.commitStats0.committedInstType::SimdFloatCvt            0      0.00%     55.99% # Class of committed instruction. (Count)
board.processor.cores9.core.commitStats0.committedInstType::SimdFloatDiv            0      0.00%     55.99% # Class of committed instruction. (Count)
board.processor.cores9.core.commitStats0.committedInstType::SimdFloatMisc            0      0.00%     55.99% # Class of committed instruction. (Count)
board.processor.cores9.core.commitStats0.committedInstType::SimdFloatMult        62500      3.08%     59.07% # Class of committed instruction. (Count)
board.processor.cores9.core.commitStats0.committedInstType::SimdFloatMultAcc            0      0.00%     59.07% # Class of committed instruction. (Count)
board.processor.cores9.core.commitStats0.committedInstType::SimdFloatMatMultAcc            0      0.00%     59.07% # Class of committed instruction. (Count)
board.processor.cores9.core.commitStats0.committedInstType::SimdFloatSqrt            0      0.00%     59.07% # Class of committed instruction. (Count)
board.processor.cores9.core.commitStats0.committedInstType::SimdReduceAdd            0      0.00%     59.07% # Class of committed instruction. (Count)
board.processor.cores9.core.commitStats0.committedInstType::SimdReduceAlu            0      0.00%     59.07% # Class of committed instruction. (Count)
board.processor.cores9.core.commitStats0.committedInstType::SimdReduceCmp            0      0.00%     59.07% # Class of committed instruction. (Count)
board.processor.cores9.core.commitStats0.committedInstType::SimdFloatReduceAdd            0      0.00%     59.07% # Class of committed instruction. (Count)
board.processor.cores9.core.commitStats0.committedInstType::SimdFloatReduceCmp            0      0.00%     59.07% # Class of committed instruction. (Count)
board.processor.cores9.core.commitStats0.committedInstType::SimdAes            0      0.00%     59.07% # Class of committed instruction. (Count)
board.processor.cores9.core.commitStats0.committedInstType::SimdAesMix            0      0.00%     59.07% # Class of committed instruction. (Count)
board.processor.cores9.core.commitStats0.committedInstType::SimdSha1Hash            0      0.00%     59.07% # Class of committed instruction. (Count)
board.processor.cores9.core.commitStats0.committedInstType::SimdSha1Hash2            0      0.00%     59.07% # Class of committed instruction. (Count)
board.processor.cores9.core.commitStats0.committedInstType::SimdSha256Hash            0      0.00%     59.07% # Class of committed instruction. (Count)
board.processor.cores9.core.commitStats0.committedInstType::SimdSha256Hash2            0      0.00%     59.07% # Class of committed instruction. (Count)
board.processor.cores9.core.commitStats0.committedInstType::SimdShaSigma2            0      0.00%     59.07% # Class of committed instruction. (Count)
board.processor.cores9.core.commitStats0.committedInstType::SimdShaSigma3            0      0.00%     59.07% # Class of committed instruction. (Count)
board.processor.cores9.core.commitStats0.committedInstType::SimdPredAlu            0      0.00%     59.07% # Class of committed instruction. (Count)
board.processor.cores9.core.commitStats0.committedInstType::Matrix            0      0.00%     59.07% # Class of committed instruction. (Count)
board.processor.cores9.core.commitStats0.committedInstType::MatrixMov            0      0.00%     59.07% # Class of committed instruction. (Count)
board.processor.cores9.core.commitStats0.committedInstType::MatrixOP            0      0.00%     59.07% # Class of committed instruction. (Count)
board.processor.cores9.core.commitStats0.committedInstType::MemRead       518199     25.53%     84.60% # Class of committed instruction. (Count)
board.processor.cores9.core.commitStats0.committedInstType::MemWrite        62671      3.09%     87.68% # Class of committed instruction. (Count)
board.processor.cores9.core.commitStats0.committedInstType::FloatMemRead       187525      9.24%     96.92% # Class of committed instruction. (Count)
board.processor.cores9.core.commitStats0.committedInstType::FloatMemWrite        62519      3.08%    100.00% # Class of committed instruction. (Count)
board.processor.cores9.core.commitStats0.committedInstType::IprAccess            0      0.00%    100.00% # Class of committed instruction. (Count)
board.processor.cores9.core.commitStats0.committedInstType::InstPrefetch            0      0.00%    100.00% # Class of committed instruction. (Count)
board.processor.cores9.core.commitStats0.committedInstType::SimdUnitStrideLoad            0      0.00%    100.00% # Class of committed instruction. (Count)
board.processor.cores9.core.commitStats0.committedInstType::SimdUnitStrideStore            0      0.00%    100.00% # Class of committed instruction. (Count)
board.processor.cores9.core.commitStats0.committedInstType::SimdUnitStrideMaskLoad            0      0.00%    100.00% # Class of committed instruction. (Count)
board.processor.cores9.core.commitStats0.committedInstType::SimdUnitStrideMaskStore            0      0.00%    100.00% # Class of committed instruction. (Count)
board.processor.cores9.core.commitStats0.committedInstType::SimdStridedLoad            0      0.00%    100.00% # Class of committed instruction. (Count)
board.processor.cores9.core.commitStats0.committedInstType::SimdStridedStore            0      0.00%    100.00% # Class of committed instruction. (Count)
board.processor.cores9.core.commitStats0.committedInstType::SimdIndexedLoad            0      0.00%    100.00% # Class of committed instruction. (Count)
board.processor.cores9.core.commitStats0.committedInstType::SimdIndexedStore            0      0.00%    100.00% # Class of committed instruction. (Count)
board.processor.cores9.core.commitStats0.committedInstType::SimdWholeRegisterLoad            0      0.00%    100.00% # Class of committed instruction. (Count)
board.processor.cores9.core.commitStats0.committedInstType::SimdWholeRegisterStore            0      0.00%    100.00% # Class of committed instruction. (Count)
board.processor.cores9.core.commitStats0.committedInstType::SimdUnitStrideFaultOnlyFirstLoad            0      0.00%    100.00% # Class of committed instruction. (Count)
board.processor.cores9.core.commitStats0.committedInstType::SimdUnitStrideSegmentedLoad            0      0.00%    100.00% # Class of committed instruction. (Count)
board.processor.cores9.core.commitStats0.committedInstType::SimdUnitStrideSegmentedStore            0      0.00%    100.00% # Class of committed instruction. (Count)
board.processor.cores9.core.commitStats0.committedInstType::SimdExt            0      0.00%    100.00% # Class of committed instruction. (Count)
board.processor.cores9.core.commitStats0.committedInstType::SimdFloatExt            0      0.00%    100.00% # Class of committed instruction. (Count)
board.processor.cores9.core.commitStats0.committedInstType::SimdConfig            0      0.00%    100.00% # Class of committed instruction. (Count)
board.processor.cores9.core.commitStats0.committedInstType::total      2029988                       # Class of committed instruction. (Count)
board.processor.cores9.core.executeStats0.numInsts            0                       # Number of executed instructions (Count)
board.processor.cores9.core.executeStats0.numNop            0                       # Number of nop insts executed (Count)
board.processor.cores9.core.executeStats0.numBranches            0                       # Number of branches executed (Count)
board.processor.cores9.core.executeStats0.numLoadInsts            0                       # Number of load instructions executed (Count)
board.processor.cores9.core.executeStats0.numStoreInsts            0                       # Number of stores executed (Count)
board.processor.cores9.core.executeStats0.instRate            0                       # Inst execution rate ((Count/Cycle))
board.processor.cores9.core.executeStats0.numFpRegWrites            0                       # Number of times the floating registers were written (Count)
board.processor.cores9.core.executeStats0.numMemRefs            0                       # Number of memory refs (Count)
board.processor.cores9.core.executeStats0.numVecAluAccesses            0                       # Number of vector alu accesses (Count)
board.processor.cores9.core.executeStats0.numDiscardedOps       322274                       # Number of ops (including micro ops) which were discarded before commit (Count)
board.processor.cores9.core.fetch2.intInstructions            0                       # Number of integer instructions successfully decoded (Count)
board.processor.cores9.core.fetch2.fpInstructions            0                       # Number of floating point instructions successfully decoded (Count)
board.processor.cores9.core.fetch2.vecInstructions            0                       # Number of SIMD instructions successfully decoded (Count)
board.processor.cores9.core.fetch2.loadInstructions            0                       # Number of memory load instructions successfully decoded (Count)
board.processor.cores9.core.fetch2.storeInstructions            0                       # Number of memory store instructions successfully decoded (Count)
board.processor.cores9.core.fetch2.amoInstructions            0                       # Number of memory atomic instructions successfully decoded (Count)
board.processor.cores9.core.fetchStats0.numInsts            0                       # Number of instructions fetched (thread level) (Count)
board.processor.cores9.core.fetchStats0.numOps            0                       # Number of ops (including micro ops) fetched (thread level) (Count)
board.processor.cores9.core.fetchStats0.fetchRate            0                       # Number of inst fetches per cycle ((Count/Cycle))
board.processor.cores9.core.fetchStats0.branchRate            0                       # Number of branch fetches per cycle (Ratio)
board.processor.cores9.core.fetchStats0.numFetchSuspends            0                       # Number of times Execute suspended instruction fetching (Count)
board.processor.cores9.core.interrupts.clk_domain.clock         5328                       # Clock period in ticks (Tick)
board.processor.cores9.core.mmu.dtb.rdAccesses       723754                       # TLB accesses on read requests (Count)
board.processor.cores9.core.mmu.dtb.wrAccesses       125204                       # TLB accesses on write requests (Count)
board.processor.cores9.core.mmu.dtb.rdMisses          268                       # TLB misses on read requests (Count)
board.processor.cores9.core.mmu.dtb.wrMisses          126                       # TLB misses on write requests (Count)
board.processor.cores9.core.mmu.dtb.walker.power_state.pwrStateResidencyTicks::UNDEFINED  50835898548                       # Cumulative time (in ticks) in various power states (Tick)
board.processor.cores9.core.mmu.itb.rdAccesses            0                       # TLB accesses on read requests (Count)
board.processor.cores9.core.mmu.itb.wrAccesses       291175                       # TLB accesses on write requests (Count)
board.processor.cores9.core.mmu.itb.rdMisses            0                       # TLB misses on read requests (Count)
board.processor.cores9.core.mmu.itb.wrMisses           22                       # TLB misses on write requests (Count)
board.processor.cores9.core.mmu.itb.walker.power_state.pwrStateResidencyTicks::UNDEFINED  50835898548                       # Cumulative time (in ticks) in various power states (Tick)
board.processor.cores9.core.power_state.pwrStateResidencyTicks::ON  50835898548                       # Cumulative time (in ticks) in various power states (Tick)
board.processor.cores9.core.thread_0.numInsts      1376767                       # Number of Instructions committed (Count)
board.processor.cores9.core.thread_0.numOps      2029988                       # Number of Ops committed (Count)
board.processor.cores9.core.thread_0.numMemRefs            0                       # Number of Memory References (Count)
board.workload.inst.arm                             0                       # number of arm instructions executed (Count)
board.workload.inst.quiesce                         0                       # number of quiesce instructions executed (Count)
board.processor.cores00.core.idleCycles      69779879                       # Total number of cycles that the object has spent stopped (Unspecified)
board.processor.cores00.core.tickCycles      82880477                       # Number of cycles that the object actually ticked (Unspecified)
board.processor.cores01.core.idleCycles       8023519                       # Total number of cycles that the object has spent stopped (Unspecified)
board.processor.cores01.core.tickCycles       3108473                       # Number of cycles that the object actually ticked (Unspecified)
board.processor.cores02.core.idleCycles       8053620                       # Total number of cycles that the object has spent stopped (Unspecified)
board.processor.cores02.core.tickCycles       3068124                       # Number of cycles that the object actually ticked (Unspecified)
board.processor.cores03.core.idleCycles       8046019                       # Total number of cycles that the object has spent stopped (Unspecified)
board.processor.cores03.core.tickCycles       3068790                       # Number of cycles that the object actually ticked (Unspecified)
board.processor.cores04.core.idleCycles       8065160                       # Total number of cycles that the object has spent stopped (Unspecified)
board.processor.cores04.core.tickCycles       3042688                       # Number of cycles that the object actually ticked (Unspecified)
board.processor.cores05.core.idleCycles       8097667                       # Total number of cycles that the object has spent stopped (Unspecified)
board.processor.cores05.core.tickCycles       3002416                       # Number of cycles that the object actually ticked (Unspecified)
board.processor.cores06.core.idleCycles       8056753                       # Total number of cycles that the object has spent stopped (Unspecified)
board.processor.cores06.core.tickCycles       3036856                       # Number of cycles that the object actually ticked (Unspecified)
board.processor.cores07.core.idleCycles       8086493                       # Total number of cycles that the object has spent stopped (Unspecified)
board.processor.cores07.core.tickCycles       3000964                       # Number of cycles that the object actually ticked (Unspecified)
board.processor.cores08.core.idleCycles       8101363                       # Total number of cycles that the object has spent stopped (Unspecified)
board.processor.cores08.core.tickCycles       2978370                       # Number of cycles that the object actually ticked (Unspecified)
board.processor.cores09.core.idleCycles       8083373                       # Total number of cycles that the object has spent stopped (Unspecified)
board.processor.cores09.core.tickCycles       2989820                       # Number of cycles that the object actually ticked (Unspecified)
board.processor.cores10.core.idleCycles       8176703                       # Total number of cycles that the object has spent stopped (Unspecified)
board.processor.cores10.core.tickCycles       2890311                       # Number of cycles that the object actually ticked (Unspecified)
board.processor.cores11.core.idleCycles       8134217                       # Total number of cycles that the object has spent stopped (Unspecified)
board.processor.cores11.core.tickCycles       2926701                       # Number of cycles that the object actually ticked (Unspecified)
board.processor.cores12.core.idleCycles       8151210                       # Total number of cycles that the object has spent stopped (Unspecified)
board.processor.cores12.core.tickCycles       2901912                       # Number of cycles that the object actually ticked (Unspecified)
board.processor.cores13.core.idleCycles       8157736                       # Total number of cycles that the object has spent stopped (Unspecified)
board.processor.cores13.core.tickCycles       2888827                       # Number of cycles that the object actually ticked (Unspecified)
board.processor.cores14.core.idleCycles       8179771                       # Total number of cycles that the object has spent stopped (Unspecified)
board.processor.cores14.core.tickCycles       2860370                       # Number of cycles that the object actually ticked (Unspecified)
board.processor.cores15.core.idleCycles       8080571                       # Total number of cycles that the object has spent stopped (Unspecified)
board.processor.cores15.core.tickCycles       2952672                       # Number of cycles that the object actually ticked (Unspecified)

---------- End Simulation Statistics   ----------
