
---------- Begin Simulation Statistics ----------
simSeconds                                   0.057588                       # Number of seconds simulated (Second)
simTicks                                  57587576112                       # Number of ticks simulated (Tick)
finalTick                                 57587576112                       # Number of ticks from beginning of simulation (restored from checkpoints and never reset) (Tick)
simFreq                                  1000000000000                       # The number of ticks per simulated second ((Tick/Second))
hostSeconds                                    437.07                       # Real time elapsed on the host (Second)
hostTickRate                                131758422                       # The number of ticks simulated per host second (ticks/s) ((Tick/Second))
hostMemory                                    2652320                       # Number of bytes of host memory used (Byte)
simInsts                                     50457080                       # Number of instructions simulated (Count)
simOps                                       80816628                       # Number of ops (including micro ops) simulated (Count)
hostInstRate                                   115444                       # Simulator instruction rate (inst/s) ((Count/Second))
hostOpRate                                     184906                       # Simulator op (including micro ops) rate (op/s) ((Count/Second))
board.cache_hierarchy.ruby_system.delayHistogram::bucket_size           64                       # delay histogram for all message (Unspecified)
board.cache_hierarchy.ruby_system.delayHistogram::max_bucket          639                       # delay histogram for all message (Unspecified)
board.cache_hierarchy.ruby_system.delayHistogram::samples      5294025                       # delay histogram for all message (Unspecified)
board.cache_hierarchy.ruby_system.delayHistogram::mean     0.951107                       # delay histogram for all message (Unspecified)
board.cache_hierarchy.ruby_system.delayHistogram::stdev     2.834544                       # delay histogram for all message (Unspecified)
board.cache_hierarchy.ruby_system.delayHistogram |     5294023    100.00%    100.00% |           0      0.00%    100.00% |           1      0.00%    100.00% |           0      0.00%    100.00% |           0      0.00%    100.00% |           1      0.00%    100.00% |           0      0.00%    100.00% |           0      0.00%    100.00% |           0      0.00%    100.00% |           0      0.00%    100.00% # delay histogram for all message (Unspecified)
board.cache_hierarchy.ruby_system.delayHistogram::total      5294025                       # delay histogram for all message (Unspecified)
board.cache_hierarchy.ruby_system.m_outstandReqHistSeqr::bucket_size            1                       (Unspecified)
board.cache_hierarchy.ruby_system.m_outstandReqHistSeqr::max_bucket            9                       (Unspecified)
board.cache_hierarchy.ruby_system.m_outstandReqHistSeqr::samples     48823884                       (Unspecified)
board.cache_hierarchy.ruby_system.m_outstandReqHistSeqr::mean     1.220981                       (Unspecified)
board.cache_hierarchy.ruby_system.m_outstandReqHistSeqr::gmean     1.163725                       (Unspecified)
board.cache_hierarchy.ruby_system.m_outstandReqHistSeqr::stdev     0.427670                       (Unspecified)
board.cache_hierarchy.ruby_system.m_outstandReqHistSeqr |           0      0.00%      0.00% |    38297233     78.44%     78.44% |    10264152     21.02%     99.46% |      262499      0.54%    100.00% |           0      0.00%    100.00% |           0      0.00%    100.00% |           0      0.00%    100.00% |           0      0.00%    100.00% |           0      0.00%    100.00% |           0      0.00%    100.00% (Unspecified)
board.cache_hierarchy.ruby_system.m_outstandReqHistSeqr::total     48823884                       (Unspecified)
board.cache_hierarchy.ruby_system.m_latencyHistSeqr::bucket_size          256                       (Unspecified)
board.cache_hierarchy.ruby_system.m_latencyHistSeqr::max_bucket         2559                       (Unspecified)
board.cache_hierarchy.ruby_system.m_latencyHistSeqr::samples     48823921                       (Unspecified)
board.cache_hierarchy.ruby_system.m_latencyHistSeqr::mean     4.274763                       (Unspecified)
board.cache_hierarchy.ruby_system.m_latencyHistSeqr::gmean     1.085068                       (Unspecified)
board.cache_hierarchy.ruby_system.m_latencyHistSeqr::stdev    30.820385                       (Unspecified)
board.cache_hierarchy.ruby_system.m_latencyHistSeqr |    48758240     99.87%     99.87% |       24322      0.05%     99.92% |       31967      0.07%     99.98% |        8235      0.02%    100.00% |         630      0.00%    100.00% |         296      0.00%    100.00% |         231      0.00%    100.00% |           0      0.00%    100.00% |           0      0.00%    100.00% |           0      0.00%    100.00% (Unspecified)
board.cache_hierarchy.ruby_system.m_latencyHistSeqr::total     48823921                       (Unspecified)
board.cache_hierarchy.ruby_system.m_hitLatencyHistSeqr::bucket_size            1                       (Unspecified)
board.cache_hierarchy.ruby_system.m_hitLatencyHistSeqr::max_bucket            9                       (Unspecified)
board.cache_hierarchy.ruby_system.m_hitLatencyHistSeqr::samples     48064932                       (Unspecified)
board.cache_hierarchy.ruby_system.m_hitLatencyHistSeqr::mean     1.000001                       (Unspecified)
board.cache_hierarchy.ruby_system.m_hitLatencyHistSeqr::gmean     1.000001                       (Unspecified)
board.cache_hierarchy.ruby_system.m_hitLatencyHistSeqr::stdev     0.000877                       (Unspecified)
board.cache_hierarchy.ruby_system.m_hitLatencyHistSeqr |           0      0.00%      0.00% |    48064895    100.00%    100.00% |          37      0.00%    100.00% |           0      0.00%    100.00% |           0      0.00%    100.00% |           0      0.00%    100.00% |           0      0.00%    100.00% |           0      0.00%    100.00% |           0      0.00%    100.00% |           0      0.00%    100.00% (Unspecified)
board.cache_hierarchy.ruby_system.m_hitLatencyHistSeqr::total     48064932                       (Unspecified)
board.cache_hierarchy.ruby_system.m_missLatencyHistSeqr::bucket_size          256                       (Unspecified)
board.cache_hierarchy.ruby_system.m_missLatencyHistSeqr::max_bucket         2559                       (Unspecified)
board.cache_hierarchy.ruby_system.m_missLatencyHistSeqr::samples       758989                       (Unspecified)
board.cache_hierarchy.ruby_system.m_missLatencyHistSeqr::mean   211.657519                       (Unspecified)
board.cache_hierarchy.ruby_system.m_missLatencyHistSeqr::gmean   190.917911                       (Unspecified)
board.cache_hierarchy.ruby_system.m_missLatencyHistSeqr::stdev   131.976501                       (Unspecified)
board.cache_hierarchy.ruby_system.m_missLatencyHistSeqr |      693308     91.35%     91.35% |       24322      3.20%     94.55% |       31967      4.21%     98.76% |        8235      1.08%     99.85% |         630      0.08%     99.93% |         296      0.04%     99.97% |         231      0.03%    100.00% |           0      0.00%    100.00% |           0      0.00%    100.00% |           0      0.00%    100.00% (Unspecified)
board.cache_hierarchy.ruby_system.m_missLatencyHistSeqr::total       758989                       (Unspecified)
board.cache_hierarchy.ruby_system.delayVCHist.vnet_0::bucket_size           64                       # delay histogram for vnet_0 (Unspecified)
board.cache_hierarchy.ruby_system.delayVCHist.vnet_0::max_bucket          639                       # delay histogram for vnet_0 (Unspecified)
board.cache_hierarchy.ruby_system.delayVCHist.vnet_0::samples      2142583                       # delay histogram for vnet_0 (Unspecified)
board.cache_hierarchy.ruby_system.delayVCHist.vnet_0::mean     2.309901                       # delay histogram for vnet_0 (Unspecified)
board.cache_hierarchy.ruby_system.delayVCHist.vnet_0::stdev     4.066008                       # delay histogram for vnet_0 (Unspecified)
board.cache_hierarchy.ruby_system.delayVCHist.vnet_0 |     2142581    100.00%    100.00% |           0      0.00%    100.00% |           1      0.00%    100.00% |           0      0.00%    100.00% |           0      0.00%    100.00% |           1      0.00%    100.00% |           0      0.00%    100.00% |           0      0.00%    100.00% |           0      0.00%    100.00% |           0      0.00%    100.00% # delay histogram for vnet_0 (Unspecified)
board.cache_hierarchy.ruby_system.delayVCHist.vnet_0::total      2142583                       # delay histogram for vnet_0 (Unspecified)
board.cache_hierarchy.ruby_system.delayVCHist.vnet_1::bucket_size            2                       # delay histogram for vnet_1 (Unspecified)
board.cache_hierarchy.ruby_system.delayVCHist.vnet_1::max_bucket           19                       # delay histogram for vnet_1 (Unspecified)
board.cache_hierarchy.ruby_system.delayVCHist.vnet_1::samples      3024828                       # delay histogram for vnet_1 (Unspecified)
board.cache_hierarchy.ruby_system.delayVCHist.vnet_1::mean     0.028441                       # delay histogram for vnet_1 (Unspecified)
board.cache_hierarchy.ruby_system.delayVCHist.vnet_1::stdev     0.393340                       # delay histogram for vnet_1 (Unspecified)
board.cache_hierarchy.ruby_system.delayVCHist.vnet_1 |     3007557     99.43%     99.43% |        2871      0.09%     99.52% |        3221      0.11%     99.63% |       11047      0.37%    100.00% |         104      0.00%    100.00% |          26      0.00%    100.00% |           1      0.00%    100.00% |           0      0.00%    100.00% |           0      0.00%    100.00% |           1      0.00%    100.00% # delay histogram for vnet_1 (Unspecified)
board.cache_hierarchy.ruby_system.delayVCHist.vnet_1::total      3024828                       # delay histogram for vnet_1 (Unspecified)
board.cache_hierarchy.ruby_system.delayVCHist.vnet_2::bucket_size            1                       # delay histogram for vnet_2 (Unspecified)
board.cache_hierarchy.ruby_system.delayVCHist.vnet_2::max_bucket            9                       # delay histogram for vnet_2 (Unspecified)
board.cache_hierarchy.ruby_system.delayVCHist.vnet_2::samples       126614                       # delay histogram for vnet_2 (Unspecified)
board.cache_hierarchy.ruby_system.delayVCHist.vnet_2 |      126614    100.00%    100.00% |           0      0.00%    100.00% |           0      0.00%    100.00% |           0      0.00%    100.00% |           0      0.00%    100.00% |           0      0.00%    100.00% |           0      0.00%    100.00% |           0      0.00%    100.00% |           0      0.00%    100.00% |           0      0.00%    100.00% # delay histogram for vnet_2 (Unspecified)
board.cache_hierarchy.ruby_system.delayVCHist.vnet_2::total       126614                       # delay histogram for vnet_2 (Unspecified)
board.cache_hierarchy.ruby_system.Directory_Controller.Fetch       756744      0.00%      0.00% (Unspecified)
board.cache_hierarchy.ruby_system.Directory_Controller.Data       499701      0.00%      0.00% (Unspecified)
board.cache_hierarchy.ruby_system.Directory_Controller.Memory_Data       756744      0.00%      0.00% (Unspecified)
board.cache_hierarchy.ruby_system.Directory_Controller.Memory_Ack       499701      0.00%      0.00% (Unspecified)
board.cache_hierarchy.ruby_system.Directory_Controller.CleanReplacement       252947      0.00%      0.00% (Unspecified)
board.cache_hierarchy.ruby_system.Directory_Controller.I.Fetch       756744      0.00%      0.00% (Unspecified)
board.cache_hierarchy.ruby_system.Directory_Controller.M.Data       499701      0.00%      0.00% (Unspecified)
board.cache_hierarchy.ruby_system.Directory_Controller.M.CleanReplacement       252947      0.00%      0.00% (Unspecified)
board.cache_hierarchy.ruby_system.Directory_Controller.IM.Memory_Data       756744      0.00%      0.00% (Unspecified)
board.cache_hierarchy.ruby_system.Directory_Controller.MI.Memory_Ack       499701      0.00%      0.00% (Unspecified)
board.cache_hierarchy.ruby_system.L1Cache_Controller.Load |    17308975     71.73%     71.73% |     2276483      9.43%     81.16% |     2271594      9.41%     90.57% |     2274609      9.43%    100.00% (Unspecified)
board.cache_hierarchy.ruby_system.L1Cache_Controller.Load::total     24131661                       (Unspecified)
board.cache_hierarchy.ruby_system.L1Cache_Controller.Ifetch |    10089352     76.63%     76.63% |     1029015      7.82%     84.45% |     1021674      7.76%     92.21% |     1026208      7.79%    100.00% (Unspecified)
board.cache_hierarchy.ruby_system.L1Cache_Controller.Ifetch::total     13166249                       (Unspecified)
board.cache_hierarchy.ruby_system.L1Cache_Controller.Store |     9368980     81.29%     81.29% |      719005      6.24%     87.52% |      719018      6.24%     93.76% |      719008      6.24%    100.00% (Unspecified)
board.cache_hierarchy.ruby_system.L1Cache_Controller.Store::total     11526011                       (Unspecified)
board.cache_hierarchy.ruby_system.L1Cache_Controller.Inv |       33454     26.44%     26.44% |       30945     24.46%     50.90% |       30858     24.39%     75.28% |       31273     24.72%    100.00% (Unspecified)
board.cache_hierarchy.ruby_system.L1Cache_Controller.Inv::total       126530                       (Unspecified)
board.cache_hierarchy.ruby_system.L1Cache_Controller.L1_Replacement |      473062     62.82%     62.82% |       93310     12.39%     75.22% |       93314     12.39%     87.61% |       93309     12.39%    100.00% (Unspecified)
board.cache_hierarchy.ruby_system.L1Cache_Controller.L1_Replacement::total       752995                       (Unspecified)
board.cache_hierarchy.ruby_system.L1Cache_Controller.Fwd_GETX |          17     65.38%     65.38% |           4     15.38%     80.77% |           4     15.38%     96.15% |           1      3.85%    100.00% (Unspecified)
board.cache_hierarchy.ruby_system.L1Cache_Controller.Fwd_GETX::total           26                       (Unspecified)
board.cache_hierarchy.ruby_system.L1Cache_Controller.Fwd_GETS |          42     73.68%     73.68% |          12     21.05%     94.74% |           2      3.51%     98.25% |           1      1.75%    100.00% (Unspecified)
board.cache_hierarchy.ruby_system.L1Cache_Controller.Fwd_GETS::total           57                       (Unspecified)
board.cache_hierarchy.ruby_system.L1Cache_Controller.Fwd_GET_INSTR |           1    100.00%    100.00% |           0      0.00%    100.00% |           0      0.00%    100.00% |           0      0.00%    100.00% (Unspecified)
board.cache_hierarchy.ruby_system.L1Cache_Controller.Fwd_GET_INSTR::total            1                       (Unspecified)
board.cache_hierarchy.ruby_system.L1Cache_Controller.Data |           1    100.00%    100.00% |           0      0.00%    100.00% |           0      0.00%    100.00% |           0      0.00%    100.00% (Unspecified)
board.cache_hierarchy.ruby_system.L1Cache_Controller.Data::total            1                       (Unspecified)
board.cache_hierarchy.ruby_system.L1Cache_Controller.Data_Exclusive |       64596     25.57%     25.57% |       62681     24.81%     50.38% |       62673     24.81%     75.19% |       62668     24.81%    100.00% (Unspecified)
board.cache_hierarchy.ruby_system.L1Cache_Controller.Data_Exclusive::total       252618                       (Unspecified)
board.cache_hierarchy.ruby_system.L1Cache_Controller.DataS_fromL1 |           2      3.45%      3.45% |          21     36.21%     39.66% |          23     39.66%     79.31% |          12     20.69%    100.00% (Unspecified)
board.cache_hierarchy.ruby_system.L1Cache_Controller.DataS_fromL1::total           58                       (Unspecified)
board.cache_hierarchy.ruby_system.L1Cache_Controller.Data_all_Acks |      410748     81.13%     81.13% |       31840      6.29%     87.42% |       31852      6.29%     93.71% |       31862      6.29%    100.00% (Unspecified)
board.cache_hierarchy.ruby_system.L1Cache_Controller.Data_all_Acks::total       506302                       (Unspecified)
board.cache_hierarchy.ruby_system.L1Cache_Controller.Ack |           4     25.00%     25.00% |           2     12.50%     37.50% |           5     31.25%     68.75% |           5     31.25%    100.00% (Unspecified)
board.cache_hierarchy.ruby_system.L1Cache_Controller.Ack::total           16                       (Unspecified)
board.cache_hierarchy.ruby_system.L1Cache_Controller.Ack_all |           3     27.27%     27.27% |           2     18.18%     45.45% |           3     27.27%     72.73% |           3     27.27%    100.00% (Unspecified)
board.cache_hierarchy.ruby_system.L1Cache_Controller.Ack_all::total           11                       (Unspecified)
board.cache_hierarchy.ruby_system.L1Cache_Controller.WB_Ack |      440584     69.95%     69.95% |       63208     10.04%     79.98% |       63215     10.04%     90.02% |       62852      9.98%    100.00% (Unspecified)
board.cache_hierarchy.ruby_system.L1Cache_Controller.WB_Ack::total       629859                       (Unspecified)
board.cache_hierarchy.ruby_system.L1Cache_Controller.NP.Load |       64249     25.51%     25.51% |       62545     24.83%     50.34% |       62548     24.83%     75.17% |       62544     24.83%    100.00% (Unspecified)
board.cache_hierarchy.ruby_system.L1Cache_Controller.NP.Load::total       251886                       (Unspecified)
board.cache_hierarchy.ruby_system.L1Cache_Controller.NP.Ifetch |        2704     84.74%     84.74% |         160      5.01%     89.75% |         164      5.14%     94.89% |         163      5.11%    100.00% (Unspecified)
board.cache_hierarchy.ruby_system.L1Cache_Controller.NP.Ifetch::total         3191                       (Unspecified)
board.cache_hierarchy.ruby_system.L1Cache_Controller.NP.Store |      407133     81.27%     81.27% |       31277      6.24%     87.51% |       31278      6.24%     93.76% |       31277      6.24%    100.00% (Unspecified)
board.cache_hierarchy.ruby_system.L1Cache_Controller.NP.Store::total       500965                       (Unspecified)
board.cache_hierarchy.ruby_system.L1Cache_Controller.NP.Inv |        1197     95.45%     95.45% |          21      1.67%     97.13% |          20      1.59%     98.72% |          16      1.28%    100.00% (Unspecified)
board.cache_hierarchy.ruby_system.L1Cache_Controller.NP.Inv::total         1254                       (Unspecified)
board.cache_hierarchy.ruby_system.L1Cache_Controller.I.Load |         354     41.84%     41.84% |         164     19.39%     61.23% |         166     19.62%     80.85% |         162     19.15%    100.00% (Unspecified)
board.cache_hierarchy.ruby_system.L1Cache_Controller.I.Load::total          846                       (Unspecified)
board.cache_hierarchy.ruby_system.L1Cache_Controller.I.Ifetch |         882     43.95%     43.95% |         375     18.68%     62.63% |         375     18.68%     81.32% |         375     18.68%    100.00% (Unspecified)
board.cache_hierarchy.ruby_system.L1Cache_Controller.I.Ifetch::total         2007                       (Unspecified)
board.cache_hierarchy.ruby_system.L1Cache_Controller.I.Store |          25     29.76%     29.76% |          21     25.00%     54.76% |          17     20.24%     75.00% |          21     25.00%    100.00% (Unspecified)
board.cache_hierarchy.ruby_system.L1Cache_Controller.I.Store::total           84                       (Unspecified)
board.cache_hierarchy.ruby_system.L1Cache_Controller.I.L1_Replacement |       30909     25.44%     25.44% |       30081     24.76%     50.19% |       30079     24.75%     74.95% |       30441     25.05%    100.00% (Unspecified)
board.cache_hierarchy.ruby_system.L1Cache_Controller.I.L1_Replacement::total       121510                       (Unspecified)
board.cache_hierarchy.ruby_system.L1Cache_Controller.S.Load |        5038      6.53%      6.53% |       26275     34.07%     40.61% |       21389     27.74%     68.34% |       24412     31.66%    100.00% (Unspecified)
board.cache_hierarchy.ruby_system.L1Cache_Controller.S.Load::total        77114                       (Unspecified)
board.cache_hierarchy.ruby_system.L1Cache_Controller.S.Ifetch |    10085766     76.63%     76.63% |     1028480      7.81%     84.45% |     1021135      7.76%     92.21% |     1025670      7.79%    100.00% (Unspecified)
board.cache_hierarchy.ruby_system.L1Cache_Controller.S.Ifetch::total     13161051                       (Unspecified)
board.cache_hierarchy.ruby_system.L1Cache_Controller.S.Store |           2     20.00%     20.00% |           2     20.00%     40.00% |           3     30.00%     70.00% |           3     30.00%    100.00% (Unspecified)
board.cache_hierarchy.ruby_system.L1Cache_Controller.S.Store::total           10                       (Unspecified)
board.cache_hierarchy.ruby_system.L1Cache_Controller.S.Inv |        1599     50.24%     50.24% |         525     16.49%     66.73% |         528     16.59%     83.32% |         531     16.68%    100.00% (Unspecified)
board.cache_hierarchy.ruby_system.L1Cache_Controller.S.Inv::total         3183                       (Unspecified)
board.cache_hierarchy.ruby_system.L1Cache_Controller.S.L1_Replacement |        1569     96.49%     96.49% |          21      1.29%     97.79% |          20      1.23%     99.02% |          16      0.98%    100.00% (Unspecified)
board.cache_hierarchy.ruby_system.L1Cache_Controller.S.L1_Replacement::total         1626                       (Unspecified)
board.cache_hierarchy.ruby_system.L1Cache_Controller.E.Load |    10029618     73.87%     73.87% |     1184668      8.73%     82.60% |     1184396      8.72%     91.32% |     1178610      8.68%    100.00% (Unspecified)
board.cache_hierarchy.ruby_system.L1Cache_Controller.E.Load::total     13577292                       (Unspecified)
board.cache_hierarchy.ruby_system.L1Cache_Controller.E.Store |         292     57.37%     57.37% |          71     13.95%     71.32% |          75     14.73%     86.05% |          71     13.95%    100.00% (Unspecified)
board.cache_hierarchy.ruby_system.L1Cache_Controller.E.Store::total          509                       (Unspecified)
board.cache_hierarchy.ruby_system.L1Cache_Controller.E.Inv |       30371     25.00%     25.00% |       30290     24.93%     49.93% |       30205     24.86%     74.80% |       30614     25.20%    100.00% (Unspecified)
board.cache_hierarchy.ruby_system.L1Cache_Controller.E.Inv::total       121480                       (Unspecified)
board.cache_hierarchy.ruby_system.L1Cache_Controller.E.L1_Replacement |       33671     25.95%     25.95% |       32140     24.77%     50.73% |       32144     24.78%     75.51% |       31775     24.49%    100.00% (Unspecified)
board.cache_hierarchy.ruby_system.L1Cache_Controller.E.L1_Replacement::total       129730                       (Unspecified)
board.cache_hierarchy.ruby_system.L1Cache_Controller.E.Fwd_GETX |           1    100.00%    100.00% |           0      0.00%    100.00% |           0      0.00%    100.00% |           0      0.00%    100.00% (Unspecified)
board.cache_hierarchy.ruby_system.L1Cache_Controller.E.Fwd_GETX::total            1                       (Unspecified)
board.cache_hierarchy.ruby_system.L1Cache_Controller.E.Fwd_GETS |           7     36.84%     36.84% |          12     63.16%    100.00% |           0      0.00%    100.00% |           0      0.00%    100.00% (Unspecified)
board.cache_hierarchy.ruby_system.L1Cache_Controller.E.Fwd_GETS::total           19                       (Unspecified)
board.cache_hierarchy.ruby_system.L1Cache_Controller.E.Fwd_GET_INSTR |           1    100.00%    100.00% |           0      0.00%    100.00% |           0      0.00%    100.00% |           0      0.00%    100.00% (Unspecified)
board.cache_hierarchy.ruby_system.L1Cache_Controller.E.Fwd_GET_INSTR::total            1                       (Unspecified)
board.cache_hierarchy.ruby_system.L1Cache_Controller.M.Load |     7209716     70.51%     70.51% |     1002831      9.81%     80.32% |     1003095      9.81%     90.13% |     1008881      9.87%    100.00% (Unspecified)
board.cache_hierarchy.ruby_system.L1Cache_Controller.M.Load::total     10224523                       (Unspecified)
board.cache_hierarchy.ruby_system.L1Cache_Controller.M.Store |     8961528     81.29%     81.29% |      687634      6.24%     87.53% |      687645      6.24%     93.76% |      687636      6.24%    100.00% (Unspecified)
board.cache_hierarchy.ruby_system.L1Cache_Controller.M.Store::total     11024443                       (Unspecified)
board.cache_hierarchy.ruby_system.L1Cache_Controller.M.Inv |         287     46.82%     46.82% |         109     17.78%     64.60% |         105     17.13%     81.73% |         112     18.27%    100.00% (Unspecified)
board.cache_hierarchy.ruby_system.L1Cache_Controller.M.Inv::total          613                       (Unspecified)
board.cache_hierarchy.ruby_system.L1Cache_Controller.M.L1_Replacement |      406913     81.36%     81.36% |       31068      6.21%     87.57% |       31071      6.21%     93.79% |       31077      6.21%    100.00% (Unspecified)
board.cache_hierarchy.ruby_system.L1Cache_Controller.M.L1_Replacement::total       500129                       (Unspecified)
board.cache_hierarchy.ruby_system.L1Cache_Controller.M.Fwd_GETX |          16     64.00%     64.00% |           4     16.00%     80.00% |           4     16.00%     96.00% |           1      4.00%    100.00% (Unspecified)
board.cache_hierarchy.ruby_system.L1Cache_Controller.M.Fwd_GETX::total           25                       (Unspecified)
board.cache_hierarchy.ruby_system.L1Cache_Controller.M.Fwd_GETS |          35     92.11%     92.11% |           0      0.00%     92.11% |           2      5.26%     97.37% |           1      2.63%    100.00% (Unspecified)
board.cache_hierarchy.ruby_system.L1Cache_Controller.M.Fwd_GETS::total           38                       (Unspecified)
board.cache_hierarchy.ruby_system.L1Cache_Controller.IS.Data_Exclusive |       64596     25.57%     25.57% |       62681     24.81%     50.38% |       62673     24.81%     75.19% |       62668     24.81%    100.00% (Unspecified)
board.cache_hierarchy.ruby_system.L1Cache_Controller.IS.Data_Exclusive::total       252618                       (Unspecified)
board.cache_hierarchy.ruby_system.L1Cache_Controller.IS.DataS_fromL1 |           2      3.45%      3.45% |          21     36.21%     39.66% |          23     39.66%     79.31% |          12     20.69%    100.00% (Unspecified)
board.cache_hierarchy.ruby_system.L1Cache_Controller.IS.DataS_fromL1::total           58                       (Unspecified)
board.cache_hierarchy.ruby_system.L1Cache_Controller.IS.Data_all_Acks |        3591     68.35%     68.35% |         542     10.32%     78.66% |         557     10.60%     89.27% |         564     10.73%    100.00% (Unspecified)
board.cache_hierarchy.ruby_system.L1Cache_Controller.IS.Data_all_Acks::total         5254                       (Unspecified)
board.cache_hierarchy.ruby_system.L1Cache_Controller.IM.Data |           1    100.00%    100.00% |           0      0.00%    100.00% |           0      0.00%    100.00% |           0      0.00%    100.00% (Unspecified)
board.cache_hierarchy.ruby_system.L1Cache_Controller.IM.Data::total            1                       (Unspecified)
board.cache_hierarchy.ruby_system.L1Cache_Controller.IM.Data_all_Acks |      407157     81.26%     81.26% |       31298      6.25%     87.51% |       31295      6.25%     93.75% |       31298      6.25%    100.00% (Unspecified)
board.cache_hierarchy.ruby_system.L1Cache_Controller.IM.Data_all_Acks::total       501048                       (Unspecified)
board.cache_hierarchy.ruby_system.L1Cache_Controller.SM.Ack |           4     25.00%     25.00% |           2     12.50%     37.50% |           5     31.25%     68.75% |           5     31.25%    100.00% (Unspecified)
board.cache_hierarchy.ruby_system.L1Cache_Controller.SM.Ack::total           16                       (Unspecified)
board.cache_hierarchy.ruby_system.L1Cache_Controller.SM.Ack_all |           3     27.27%     27.27% |           2     18.18%     45.45% |           3     27.27%     72.73% |           3     27.27%    100.00% (Unspecified)
board.cache_hierarchy.ruby_system.L1Cache_Controller.SM.Ack_all::total           11                       (Unspecified)
board.cache_hierarchy.ruby_system.L1Cache_Controller.M_I.WB_Ack |      440584     69.95%     69.95% |       63208     10.04%     79.98% |       63215     10.04%     90.02% |       62852      9.98%    100.00% (Unspecified)
board.cache_hierarchy.ruby_system.L1Cache_Controller.M_I.WB_Ack::total       629859                       (Unspecified)
board.cache_hierarchy.ruby_system.L2Cache_Controller.L1_GET_INSTR         5395      0.00%      0.00% (Unspecified)
board.cache_hierarchy.ruby_system.L2Cache_Controller.L1_GETS       253089      0.00%      0.00% (Unspecified)
board.cache_hierarchy.ruby_system.L2Cache_Controller.L1_GETX       501100      0.00%      0.00% (Unspecified)
board.cache_hierarchy.ruby_system.L2Cache_Controller.L1_UPGRADE           10      0.00%      0.00% (Unspecified)
board.cache_hierarchy.ruby_system.L2Cache_Controller.L1_PUTX       629859      0.00%      0.00% (Unspecified)
board.cache_hierarchy.ruby_system.L2Cache_Controller.L2_Replacement       499093      0.00%      0.00% (Unspecified)
board.cache_hierarchy.ruby_system.L2Cache_Controller.L2_Replacement_clean       253555      0.00%      0.00% (Unspecified)
board.cache_hierarchy.ruby_system.L2Cache_Controller.Mem_Data       756744      0.00%      0.00% (Unspecified)
board.cache_hierarchy.ruby_system.L2Cache_Controller.Mem_Ack       752648      0.00%      0.00% (Unspecified)
board.cache_hierarchy.ruby_system.L2Cache_Controller.WB_Data          651      0.00%      0.00% (Unspecified)
board.cache_hierarchy.ruby_system.L2Cache_Controller.WB_Data_clean           20      0.00%      0.00% (Unspecified)
board.cache_hierarchy.ruby_system.L2Cache_Controller.Ack         1493      0.00%      0.00% (Unspecified)
board.cache_hierarchy.ruby_system.L2Cache_Controller.Ack_all       124407      0.00%      0.00% (Unspecified)
board.cache_hierarchy.ruby_system.L2Cache_Controller.Unblock           58      0.00%      0.00% (Unspecified)
board.cache_hierarchy.ruby_system.L2Cache_Controller.Exclusive_Unblock       753677      0.00%      0.00% (Unspecified)
board.cache_hierarchy.ruby_system.L2Cache_Controller.NP.L1_GET_INSTR         3508      0.00%      0.00% (Unspecified)
board.cache_hierarchy.ruby_system.L2Cache_Controller.NP.L1_GETS       252254      0.00%      0.00% (Unspecified)
board.cache_hierarchy.ruby_system.L2Cache_Controller.NP.L1_GETX       500982      0.00%      0.00% (Unspecified)
board.cache_hierarchy.ruby_system.L2Cache_Controller.SS.L1_GET_INSTR          735      0.00%      0.00% (Unspecified)
board.cache_hierarchy.ruby_system.L2Cache_Controller.SS.L1_GETS           40      0.00%      0.00% (Unspecified)
board.cache_hierarchy.ruby_system.L2Cache_Controller.SS.L1_GETX            2      0.00%      0.00% (Unspecified)
board.cache_hierarchy.ruby_system.L2Cache_Controller.SS.L1_UPGRADE           10      0.00%      0.00% (Unspecified)
board.cache_hierarchy.ruby_system.L2Cache_Controller.SS.L2_Replacement           27      0.00%      0.00% (Unspecified)
board.cache_hierarchy.ruby_system.L2Cache_Controller.SS.L2_Replacement_clean         2900      0.00%      0.00% (Unspecified)
board.cache_hierarchy.ruby_system.L2Cache_Controller.M.L1_GETS          369      0.00%      0.00% (Unspecified)
board.cache_hierarchy.ruby_system.L2Cache_Controller.M.L1_GETX           39      0.00%      0.00% (Unspecified)
board.cache_hierarchy.ruby_system.L2Cache_Controller.M.L2_Replacement       499061      0.00%      0.00% (Unspecified)
board.cache_hierarchy.ruby_system.L2Cache_Controller.M.L2_Replacement_clean       128567      0.00%      0.00% (Unspecified)
board.cache_hierarchy.ruby_system.L2Cache_Controller.MT.L1_GET_INSTR            1      0.00%      0.00% (Unspecified)
board.cache_hierarchy.ruby_system.L2Cache_Controller.MT.L1_GETS           57      0.00%      0.00% (Unspecified)
board.cache_hierarchy.ruby_system.L2Cache_Controller.MT.L1_GETX           26      0.00%      0.00% (Unspecified)
board.cache_hierarchy.ruby_system.L2Cache_Controller.MT.L1_PUTX       629859      0.00%      0.00% (Unspecified)
board.cache_hierarchy.ruby_system.L2Cache_Controller.MT.L2_Replacement            5      0.00%      0.00% (Unspecified)
board.cache_hierarchy.ruby_system.L2Cache_Controller.MT.L2_Replacement_clean       122088      0.00%      0.00% (Unspecified)
board.cache_hierarchy.ruby_system.L2Cache_Controller.M_I.L1_GET_INSTR          196      0.00%      0.00% (Unspecified)
board.cache_hierarchy.ruby_system.L2Cache_Controller.M_I.L1_GETS          338      0.00%      0.00% (Unspecified)
board.cache_hierarchy.ruby_system.L2Cache_Controller.M_I.L1_GETX           41      0.00%      0.00% (Unspecified)
board.cache_hierarchy.ruby_system.L2Cache_Controller.M_I.Mem_Ack       752648      0.00%      0.00% (Unspecified)
board.cache_hierarchy.ruby_system.L2Cache_Controller.MT_I.WB_Data            5      0.00%      0.00% (Unspecified)
board.cache_hierarchy.ruby_system.L2Cache_Controller.MCT_I.WB_Data          608      0.00%      0.00% (Unspecified)
board.cache_hierarchy.ruby_system.L2Cache_Controller.MCT_I.Ack_all       121480      0.00%      0.00% (Unspecified)
board.cache_hierarchy.ruby_system.L2Cache_Controller.I_I.Ack         1455      0.00%      0.00% (Unspecified)
board.cache_hierarchy.ruby_system.L2Cache_Controller.I_I.Ack_all         2900      0.00%      0.00% (Unspecified)
board.cache_hierarchy.ruby_system.L2Cache_Controller.S_I.Ack           38      0.00%      0.00% (Unspecified)
board.cache_hierarchy.ruby_system.L2Cache_Controller.S_I.Ack_all           27      0.00%      0.00% (Unspecified)
board.cache_hierarchy.ruby_system.L2Cache_Controller.ISS.L1_GETS            5      0.00%      0.00% (Unspecified)
board.cache_hierarchy.ruby_system.L2Cache_Controller.ISS.Mem_Data       252249      0.00%      0.00% (Unspecified)
board.cache_hierarchy.ruby_system.L2Cache_Controller.IS.L1_GET_INSTR          954      0.00%      0.00% (Unspecified)
board.cache_hierarchy.ruby_system.L2Cache_Controller.IS.L1_GETS            7      0.00%      0.00% (Unspecified)
board.cache_hierarchy.ruby_system.L2Cache_Controller.IS.Mem_Data         3513      0.00%      0.00% (Unspecified)
board.cache_hierarchy.ruby_system.L2Cache_Controller.IM.L1_GETX            2      0.00%      0.00% (Unspecified)
board.cache_hierarchy.ruby_system.L2Cache_Controller.IM.Mem_Data       500982      0.00%      0.00% (Unspecified)
board.cache_hierarchy.ruby_system.L2Cache_Controller.SS_MB.L1_GETS            2      0.00%      0.00% (Unspecified)
board.cache_hierarchy.ruby_system.L2Cache_Controller.SS_MB.Exclusive_Unblock           12      0.00%      0.00% (Unspecified)
board.cache_hierarchy.ruby_system.L2Cache_Controller.MT_MB.L1_GETS            2      0.00%      0.00% (Unspecified)
board.cache_hierarchy.ruby_system.L2Cache_Controller.MT_MB.L1_GETX            8      0.00%      0.00% (Unspecified)
board.cache_hierarchy.ruby_system.L2Cache_Controller.MT_MB.Exclusive_Unblock       753665      0.00%      0.00% (Unspecified)
board.cache_hierarchy.ruby_system.L2Cache_Controller.MT_IIB.L1_GET_INSTR            1      0.00%      0.00% (Unspecified)
board.cache_hierarchy.ruby_system.L2Cache_Controller.MT_IIB.L1_GETS           14      0.00%      0.00% (Unspecified)
board.cache_hierarchy.ruby_system.L2Cache_Controller.MT_IIB.WB_Data           36      0.00%      0.00% (Unspecified)
board.cache_hierarchy.ruby_system.L2Cache_Controller.MT_IIB.WB_Data_clean           20      0.00%      0.00% (Unspecified)
board.cache_hierarchy.ruby_system.L2Cache_Controller.MT_IIB.Unblock            2      0.00%      0.00% (Unspecified)
board.cache_hierarchy.ruby_system.L2Cache_Controller.MT_IB.WB_Data            2      0.00%      0.00% (Unspecified)
board.cache_hierarchy.ruby_system.L2Cache_Controller.MT_SB.L1_GETS            1      0.00%      0.00% (Unspecified)
board.cache_hierarchy.ruby_system.L2Cache_Controller.MT_SB.Unblock           56      0.00%      0.00% (Unspecified)
board.cache_hierarchy.ruby_system.RequestType.LD.latency_hist_seqr::bucket_size          256                       (Unspecified)
board.cache_hierarchy.ruby_system.RequestType.LD.latency_hist_seqr::max_bucket         2559                       (Unspecified)
board.cache_hierarchy.ruby_system.RequestType.LD.latency_hist_seqr::samples     24131661                       (Unspecified)
board.cache_hierarchy.ruby_system.RequestType.LD.latency_hist_seqr::mean     3.595028                       (Unspecified)
board.cache_hierarchy.ruby_system.RequestType.LD.latency_hist_seqr::gmean     1.058640                       (Unspecified)
board.cache_hierarchy.ruby_system.RequestType.LD.latency_hist_seqr::stdev    28.195381                       (Unspecified)
board.cache_hierarchy.ruby_system.RequestType.LD.latency_hist_seqr |    24099320     99.87%     99.87% |       20046      0.08%     99.95% |        9461      0.04%     99.99% |        2187      0.01%    100.00% |         425      0.00%    100.00% |         219      0.00%    100.00% |           3      0.00%    100.00% |           0      0.00%    100.00% |           0      0.00%    100.00% |           0      0.00%    100.00% (Unspecified)
board.cache_hierarchy.ruby_system.RequestType.LD.latency_hist_seqr::total     24131661                       (Unspecified)
board.cache_hierarchy.ruby_system.RequestType.LD.hit_latency_hist_seqr::bucket_size            1                       (Unspecified)
board.cache_hierarchy.ruby_system.RequestType.LD.hit_latency_hist_seqr::max_bucket            9                       (Unspecified)
board.cache_hierarchy.ruby_system.RequestType.LD.hit_latency_hist_seqr::samples     23878929                       (Unspecified)
board.cache_hierarchy.ruby_system.RequestType.LD.hit_latency_hist_seqr::mean            1                       (Unspecified)
board.cache_hierarchy.ruby_system.RequestType.LD.hit_latency_hist_seqr::gmean            1                       (Unspecified)
board.cache_hierarchy.ruby_system.RequestType.LD.hit_latency_hist_seqr |           0      0.00%      0.00% |    23878929    100.00%    100.00% |           0      0.00%    100.00% |           0      0.00%    100.00% |           0      0.00%    100.00% |           0      0.00%    100.00% |           0      0.00%    100.00% |           0      0.00%    100.00% |           0      0.00%    100.00% |           0      0.00%    100.00% (Unspecified)
board.cache_hierarchy.ruby_system.RequestType.LD.hit_latency_hist_seqr::total     23878929                       (Unspecified)
board.cache_hierarchy.ruby_system.RequestType.LD.miss_latency_hist_seqr::bucket_size          256                       (Unspecified)
board.cache_hierarchy.ruby_system.RequestType.LD.miss_latency_hist_seqr::max_bucket         2559                       (Unspecified)
board.cache_hierarchy.ruby_system.RequestType.LD.miss_latency_hist_seqr::samples       252732                       (Unspecified)
board.cache_hierarchy.ruby_system.RequestType.LD.miss_latency_hist_seqr::mean   248.781563                       (Unspecified)
board.cache_hierarchy.ruby_system.RequestType.LD.miss_latency_hist_seqr::gmean   230.701900                       (Unspecified)
board.cache_hierarchy.ruby_system.RequestType.LD.miss_latency_hist_seqr::stdev   123.103792                       (Unspecified)
board.cache_hierarchy.ruby_system.RequestType.LD.miss_latency_hist_seqr |      220391     87.20%     87.20% |       20046      7.93%     95.14% |        9461      3.74%     98.88% |        2187      0.87%     99.74% |         425      0.17%     99.91% |         219      0.09%    100.00% |           3      0.00%    100.00% |           0      0.00%    100.00% |           0      0.00%    100.00% |           0      0.00%    100.00% (Unspecified)
board.cache_hierarchy.ruby_system.RequestType.LD.miss_latency_hist_seqr::total       252732                       (Unspecified)
board.cache_hierarchy.ruby_system.RequestType.ST.latency_hist_seqr::bucket_size          256                       (Unspecified)
board.cache_hierarchy.ruby_system.RequestType.ST.latency_hist_seqr::max_bucket         2559                       (Unspecified)
board.cache_hierarchy.ruby_system.RequestType.ST.latency_hist_seqr::samples      7523512                       (Unspecified)
board.cache_hierarchy.ruby_system.RequestType.ST.latency_hist_seqr::mean    13.814061                       (Unspecified)
board.cache_hierarchy.ruby_system.RequestType.ST.latency_hist_seqr::gmean     1.409931                       (Unspecified)
board.cache_hierarchy.ruby_system.RequestType.ST.latency_hist_seqr::stdev    58.923228                       (Unspecified)
board.cache_hierarchy.ruby_system.RequestType.ST.latency_hist_seqr |     7490536     99.56%     99.56% |        3986      0.05%     99.61% |       22470      0.30%     99.91% |        6014      0.08%     99.99% |         202      0.00%    100.00% |          76      0.00%    100.00% |         228      0.00%    100.00% |           0      0.00%    100.00% |           0      0.00%    100.00% |           0      0.00%    100.00% (Unspecified)
board.cache_hierarchy.ruby_system.RequestType.ST.latency_hist_seqr::total      7523512                       (Unspecified)
board.cache_hierarchy.ruby_system.RequestType.ST.hit_latency_hist_seqr::bucket_size            1                       (Unspecified)
board.cache_hierarchy.ruby_system.RequestType.ST.hit_latency_hist_seqr::max_bucket            9                       (Unspecified)
board.cache_hierarchy.ruby_system.RequestType.ST.hit_latency_hist_seqr::samples      7022797                       (Unspecified)
board.cache_hierarchy.ruby_system.RequestType.ST.hit_latency_hist_seqr::mean     1.000005                       (Unspecified)
board.cache_hierarchy.ruby_system.RequestType.ST.hit_latency_hist_seqr::gmean     1.000004                       (Unspecified)
board.cache_hierarchy.ruby_system.RequestType.ST.hit_latency_hist_seqr::stdev     0.002295                       (Unspecified)
board.cache_hierarchy.ruby_system.RequestType.ST.hit_latency_hist_seqr |           0      0.00%      0.00% |     7022760    100.00%    100.00% |          37      0.00%    100.00% |           0      0.00%    100.00% |           0      0.00%    100.00% |           0      0.00%    100.00% |           0      0.00%    100.00% |           0      0.00%    100.00% |           0      0.00%    100.00% |           0      0.00%    100.00% (Unspecified)
board.cache_hierarchy.ruby_system.RequestType.ST.hit_latency_hist_seqr::total      7022797                       (Unspecified)
board.cache_hierarchy.ruby_system.RequestType.ST.miss_latency_hist_seqr::bucket_size          256                       (Unspecified)
board.cache_hierarchy.ruby_system.RequestType.ST.miss_latency_hist_seqr::max_bucket         2559                       (Unspecified)
board.cache_hierarchy.ruby_system.RequestType.ST.miss_latency_hist_seqr::samples       500715                       (Unspecified)
board.cache_hierarchy.ruby_system.RequestType.ST.miss_latency_hist_seqr::mean   193.538073                       (Unspecified)
board.cache_hierarchy.ruby_system.RequestType.ST.miss_latency_hist_seqr::gmean   174.483220                       (Unspecified)
board.cache_hierarchy.ruby_system.RequestType.ST.miss_latency_hist_seqr::stdev   132.529923                       (Unspecified)
board.cache_hierarchy.ruby_system.RequestType.ST.miss_latency_hist_seqr |      467739     93.41%     93.41% |        3986      0.80%     94.21% |       22470      4.49%     98.70% |        6014      1.20%     99.90% |         202      0.04%     99.94% |          76      0.02%     99.95% |         228      0.05%    100.00% |           0      0.00%    100.00% |           0      0.00%    100.00% |           0      0.00%    100.00% (Unspecified)
board.cache_hierarchy.ruby_system.RequestType.ST.miss_latency_hist_seqr::total       500715                       (Unspecified)
board.cache_hierarchy.ruby_system.RequestType.IFETCH.latency_hist_seqr::bucket_size          256                       (Unspecified)
board.cache_hierarchy.ruby_system.RequestType.IFETCH.latency_hist_seqr::max_bucket         2559                       (Unspecified)
board.cache_hierarchy.ruby_system.RequestType.IFETCH.latency_hist_seqr::samples     13166249                       (Unspecified)
board.cache_hierarchy.ruby_system.RequestType.IFETCH.latency_hist_seqr::mean     1.061576                       (Unspecified)
board.cache_hierarchy.ruby_system.RequestType.IFETCH.latency_hist_seqr::gmean     1.001877                       (Unspecified)
board.cache_hierarchy.ruby_system.RequestType.IFETCH.latency_hist_seqr::stdev     3.791611                       (Unspecified)
board.cache_hierarchy.ruby_system.RequestType.IFETCH.latency_hist_seqr |    13165889    100.00%    100.00% |         289      0.00%    100.00% |          35      0.00%    100.00% |          32      0.00%    100.00% |           3      0.00%    100.00% |           1      0.00%    100.00% |           0      0.00%    100.00% |           0      0.00%    100.00% |           0      0.00%    100.00% |           0      0.00%    100.00% (Unspecified)
board.cache_hierarchy.ruby_system.RequestType.IFETCH.latency_hist_seqr::total     13166249                       (Unspecified)
board.cache_hierarchy.ruby_system.RequestType.IFETCH.hit_latency_hist_seqr::bucket_size            1                       (Unspecified)
board.cache_hierarchy.ruby_system.RequestType.IFETCH.hit_latency_hist_seqr::max_bucket            9                       (Unspecified)
board.cache_hierarchy.ruby_system.RequestType.IFETCH.hit_latency_hist_seqr::samples     13161051                       (Unspecified)
board.cache_hierarchy.ruby_system.RequestType.IFETCH.hit_latency_hist_seqr::mean            1                       (Unspecified)
board.cache_hierarchy.ruby_system.RequestType.IFETCH.hit_latency_hist_seqr::gmean            1                       (Unspecified)
board.cache_hierarchy.ruby_system.RequestType.IFETCH.hit_latency_hist_seqr |           0      0.00%      0.00% |    13161051    100.00%    100.00% |           0      0.00%    100.00% |           0      0.00%    100.00% |           0      0.00%    100.00% |           0      0.00%    100.00% |           0      0.00%    100.00% |           0      0.00%    100.00% |           0      0.00%    100.00% |           0      0.00%    100.00% (Unspecified)
board.cache_hierarchy.ruby_system.RequestType.IFETCH.hit_latency_hist_seqr::total     13161051                       (Unspecified)
board.cache_hierarchy.ruby_system.RequestType.IFETCH.miss_latency_hist_seqr::bucket_size          256                       (Unspecified)
board.cache_hierarchy.ruby_system.RequestType.IFETCH.miss_latency_hist_seqr::max_bucket         2559                       (Unspecified)
board.cache_hierarchy.ruby_system.RequestType.IFETCH.miss_latency_hist_seqr::samples         5198                       (Unspecified)
board.cache_hierarchy.ruby_system.RequestType.IFETCH.miss_latency_hist_seqr::mean   156.968834                       (Unspecified)
board.cache_hierarchy.ruby_system.RequestType.IFETCH.miss_latency_hist_seqr::gmean   115.565220                       (Unspecified)
board.cache_hierarchy.ruby_system.RequestType.IFETCH.miss_latency_hist_seqr::stdev   110.000323                       (Unspecified)
board.cache_hierarchy.ruby_system.RequestType.IFETCH.miss_latency_hist_seqr |        4838     93.07%     93.07% |         289      5.56%     98.63% |          35      0.67%     99.31% |          32      0.62%     99.92% |           3      0.06%     99.98% |           1      0.02%    100.00% |           0      0.00%    100.00% |           0      0.00%    100.00% |           0      0.00%    100.00% |           0      0.00%    100.00% (Unspecified)
board.cache_hierarchy.ruby_system.RequestType.IFETCH.miss_latency_hist_seqr::total         5198                       (Unspecified)
board.cache_hierarchy.ruby_system.RequestType.RMW_Read.latency_hist_seqr::bucket_size          128                       (Unspecified)
board.cache_hierarchy.ruby_system.RequestType.RMW_Read.latency_hist_seqr::max_bucket         1279                       (Unspecified)
board.cache_hierarchy.ruby_system.RequestType.RMW_Read.latency_hist_seqr::samples      4002201                       (Unspecified)
board.cache_hierarchy.ruby_system.RequestType.RMW_Read.latency_hist_seqr::mean     1.011164                       (Unspecified)
board.cache_hierarchy.ruby_system.RequestType.RMW_Read.latency_hist_seqr::gmean     1.000392                       (Unspecified)
board.cache_hierarchy.ruby_system.RequestType.RMW_Read.latency_hist_seqr::stdev     1.422031                       (Unspecified)
board.cache_hierarchy.ruby_system.RequestType.RMW_Read.latency_hist_seqr |     4001953     99.99%     99.99% |         245      0.01%    100.00% |           0      0.00%    100.00% |           0      0.00%    100.00% |           0      0.00%    100.00% |           1      0.00%    100.00% |           2      0.00%    100.00% |           0      0.00%    100.00% |           0      0.00%    100.00% |           0      0.00%    100.00% (Unspecified)
board.cache_hierarchy.ruby_system.RequestType.RMW_Read.latency_hist_seqr::total      4002201                       (Unspecified)
board.cache_hierarchy.ruby_system.RequestType.RMW_Read.hit_latency_hist_seqr::bucket_size            1                       (Unspecified)
board.cache_hierarchy.ruby_system.RequestType.RMW_Read.hit_latency_hist_seqr::max_bucket            9                       (Unspecified)
board.cache_hierarchy.ruby_system.RequestType.RMW_Read.hit_latency_hist_seqr::samples      4001877                       (Unspecified)
board.cache_hierarchy.ruby_system.RequestType.RMW_Read.hit_latency_hist_seqr::mean            1                       (Unspecified)
board.cache_hierarchy.ruby_system.RequestType.RMW_Read.hit_latency_hist_seqr::gmean            1                       (Unspecified)
board.cache_hierarchy.ruby_system.RequestType.RMW_Read.hit_latency_hist_seqr |           0      0.00%      0.00% |     4001877    100.00%    100.00% |           0      0.00%    100.00% |           0      0.00%    100.00% |           0      0.00%    100.00% |           0      0.00%    100.00% |           0      0.00%    100.00% |           0      0.00%    100.00% |           0      0.00%    100.00% |           0      0.00%    100.00% (Unspecified)
board.cache_hierarchy.ruby_system.RequestType.RMW_Read.hit_latency_hist_seqr::total      4001877                       (Unspecified)
board.cache_hierarchy.ruby_system.RequestType.RMW_Read.miss_latency_hist_seqr::bucket_size          128                       (Unspecified)
board.cache_hierarchy.ruby_system.RequestType.RMW_Read.miss_latency_hist_seqr::max_bucket         1279                       (Unspecified)
board.cache_hierarchy.ruby_system.RequestType.RMW_Read.miss_latency_hist_seqr::samples          324                       (Unspecified)
board.cache_hierarchy.ruby_system.RequestType.RMW_Read.miss_latency_hist_seqr::mean   138.898148                       (Unspecified)
board.cache_hierarchy.ruby_system.RequestType.RMW_Read.miss_latency_hist_seqr::gmean   126.285237                       (Unspecified)
board.cache_hierarchy.ruby_system.RequestType.RMW_Read.miss_latency_hist_seqr::stdev    77.349387                       (Unspecified)
board.cache_hierarchy.ruby_system.RequestType.RMW_Read.miss_latency_hist_seqr |          76     23.46%     23.46% |         245     75.62%     99.07% |           0      0.00%     99.07% |           0      0.00%     99.07% |           0      0.00%     99.07% |           1      0.31%     99.38% |           2      0.62%    100.00% |           0      0.00%    100.00% |           0      0.00%    100.00% |           0      0.00%    100.00% (Unspecified)
board.cache_hierarchy.ruby_system.RequestType.RMW_Read.miss_latency_hist_seqr::total          324                       (Unspecified)
board.cache_hierarchy.ruby_system.RequestType.Locked_RMW_Read.latency_hist_seqr::bucket_size           64                       (Unspecified)
board.cache_hierarchy.ruby_system.RequestType.Locked_RMW_Read.latency_hist_seqr::max_bucket          639                       (Unspecified)
board.cache_hierarchy.ruby_system.RequestType.Locked_RMW_Read.latency_hist_seqr::samples          149                       (Unspecified)
board.cache_hierarchy.ruby_system.RequestType.Locked_RMW_Read.latency_hist_seqr::mean    16.463087                       (Unspecified)
board.cache_hierarchy.ruby_system.RequestType.Locked_RMW_Read.latency_hist_seqr::gmean     1.738519                       (Unspecified)
board.cache_hierarchy.ruby_system.RequestType.Locked_RMW_Read.latency_hist_seqr::stdev    58.600517                       (Unspecified)
board.cache_hierarchy.ruby_system.RequestType.Locked_RMW_Read.latency_hist_seqr |         139     93.29%     93.29% |           0      0.00%     93.29% |           6      4.03%     97.32% |           3      2.01%     99.33% |           0      0.00%     99.33% |           0      0.00%     99.33% |           0      0.00%     99.33% |           1      0.67%    100.00% |           0      0.00%    100.00% |           0      0.00%    100.00% (Unspecified)
board.cache_hierarchy.ruby_system.RequestType.Locked_RMW_Read.latency_hist_seqr::total          149                       (Unspecified)
board.cache_hierarchy.ruby_system.RequestType.Locked_RMW_Read.hit_latency_hist_seqr::bucket_size            1                       (Unspecified)
board.cache_hierarchy.ruby_system.RequestType.Locked_RMW_Read.hit_latency_hist_seqr::max_bucket            9                       (Unspecified)
board.cache_hierarchy.ruby_system.RequestType.Locked_RMW_Read.hit_latency_hist_seqr::samples          129                       (Unspecified)
board.cache_hierarchy.ruby_system.RequestType.Locked_RMW_Read.hit_latency_hist_seqr::mean            1                       (Unspecified)
board.cache_hierarchy.ruby_system.RequestType.Locked_RMW_Read.hit_latency_hist_seqr::gmean            1                       (Unspecified)
board.cache_hierarchy.ruby_system.RequestType.Locked_RMW_Read.hit_latency_hist_seqr |           0      0.00%      0.00% |         129    100.00%    100.00% |           0      0.00%    100.00% |           0      0.00%    100.00% |           0      0.00%    100.00% |           0      0.00%    100.00% |           0      0.00%    100.00% |           0      0.00%    100.00% |           0      0.00%    100.00% |           0      0.00%    100.00% (Unspecified)
board.cache_hierarchy.ruby_system.RequestType.Locked_RMW_Read.hit_latency_hist_seqr::total          129                       (Unspecified)
board.cache_hierarchy.ruby_system.RequestType.Locked_RMW_Read.miss_latency_hist_seqr::bucket_size           64                       (Unspecified)
board.cache_hierarchy.ruby_system.RequestType.Locked_RMW_Read.miss_latency_hist_seqr::max_bucket          639                       (Unspecified)
board.cache_hierarchy.ruby_system.RequestType.Locked_RMW_Read.miss_latency_hist_seqr::samples           20                       (Unspecified)
board.cache_hierarchy.ruby_system.RequestType.Locked_RMW_Read.miss_latency_hist_seqr::mean   116.200000                       (Unspecified)
board.cache_hierarchy.ruby_system.RequestType.Locked_RMW_Read.miss_latency_hist_seqr::gmean    61.565547                       (Unspecified)
board.cache_hierarchy.ruby_system.RequestType.Locked_RMW_Read.miss_latency_hist_seqr::stdev   121.057011                       (Unspecified)
board.cache_hierarchy.ruby_system.RequestType.Locked_RMW_Read.miss_latency_hist_seqr |          10     50.00%     50.00% |           0      0.00%     50.00% |           6     30.00%     80.00% |           3     15.00%     95.00% |           0      0.00%     95.00% |           0      0.00%     95.00% |           0      0.00%     95.00% |           1      5.00%    100.00% |           0      0.00%    100.00% |           0      0.00%    100.00% (Unspecified)
board.cache_hierarchy.ruby_system.RequestType.Locked_RMW_Read.miss_latency_hist_seqr::total           20                       (Unspecified)
board.cache_hierarchy.ruby_system.RequestType.Locked_RMW_Write.latency_hist_seqr::bucket_size            1                       (Unspecified)
board.cache_hierarchy.ruby_system.RequestType.Locked_RMW_Write.latency_hist_seqr::max_bucket            9                       (Unspecified)
board.cache_hierarchy.ruby_system.RequestType.Locked_RMW_Write.latency_hist_seqr::samples          149                       (Unspecified)
board.cache_hierarchy.ruby_system.RequestType.Locked_RMW_Write.latency_hist_seqr::mean            1                       (Unspecified)
board.cache_hierarchy.ruby_system.RequestType.Locked_RMW_Write.latency_hist_seqr::gmean            1                       (Unspecified)
board.cache_hierarchy.ruby_system.RequestType.Locked_RMW_Write.latency_hist_seqr |           0      0.00%      0.00% |         149    100.00%    100.00% |           0      0.00%    100.00% |           0      0.00%    100.00% |           0      0.00%    100.00% |           0      0.00%    100.00% |           0      0.00%    100.00% |           0      0.00%    100.00% |           0      0.00%    100.00% |           0      0.00%    100.00% (Unspecified)
board.cache_hierarchy.ruby_system.RequestType.Locked_RMW_Write.latency_hist_seqr::total          149                       (Unspecified)
board.cache_hierarchy.ruby_system.RequestType.Locked_RMW_Write.hit_latency_hist_seqr::bucket_size            1                       (Unspecified)
board.cache_hierarchy.ruby_system.RequestType.Locked_RMW_Write.hit_latency_hist_seqr::max_bucket            9                       (Unspecified)
board.cache_hierarchy.ruby_system.RequestType.Locked_RMW_Write.hit_latency_hist_seqr::samples          149                       (Unspecified)
board.cache_hierarchy.ruby_system.RequestType.Locked_RMW_Write.hit_latency_hist_seqr::mean            1                       (Unspecified)
board.cache_hierarchy.ruby_system.RequestType.Locked_RMW_Write.hit_latency_hist_seqr::gmean            1                       (Unspecified)
board.cache_hierarchy.ruby_system.RequestType.Locked_RMW_Write.hit_latency_hist_seqr |           0      0.00%      0.00% |         149    100.00%    100.00% |           0      0.00%    100.00% |           0      0.00%    100.00% |           0      0.00%    100.00% |           0      0.00%    100.00% |           0      0.00%    100.00% |           0      0.00%    100.00% |           0      0.00%    100.00% |           0      0.00%    100.00% (Unspecified)
board.cache_hierarchy.ruby_system.RequestType.Locked_RMW_Write.hit_latency_hist_seqr::total          149                       (Unspecified)
board.cache_hierarchy.ruby_system.directory_controllers.power_state.pwrStateResidencyTicks::UNDEFINED  57587576112                       # Cumulative time (in ticks) in various power states (Tick)
board.cache_hierarchy.ruby_system.directory_controllers.requestToDir.m_msg_count       756744                       # Number of messages passed the buffer (Count)
board.cache_hierarchy.ruby_system.directory_controllers.requestToDir.m_buf_msgs     0.004376                       # Average number of messages in buffer ((Count/Tick))
board.cache_hierarchy.ruby_system.directory_controllers.requestToMemory.m_msg_count      1256445                       # Number of messages passed the buffer (Count)
board.cache_hierarchy.ruby_system.directory_controllers.requestToMemory.m_buf_msgs     0.007290                       # Average number of messages in buffer ((Count/Tick))
board.cache_hierarchy.ruby_system.directory_controllers.requestToMemory.m_stall_time      1442556                       # Total number of ticks messages were stalled in this buffer (Tick)
board.cache_hierarchy.ruby_system.directory_controllers.requestToMemory.m_avg_stall_time     1.148125                       # Average stall ticks per message ((Tick/Count))
board.cache_hierarchy.ruby_system.directory_controllers.responseFromDir.m_msg_count      1509392                       # Number of messages passed the buffer (Count)
board.cache_hierarchy.ruby_system.directory_controllers.responseFromDir.m_buf_msgs     0.008728                       # Average number of messages in buffer ((Count/Tick))
board.cache_hierarchy.ruby_system.directory_controllers.responseFromMemory.m_msg_count      1256445                       # Number of messages passed the buffer (Count)
board.cache_hierarchy.ruby_system.directory_controllers.responseFromMemory.m_buf_msgs     0.011985                       # Average number of messages in buffer ((Count/Tick))
board.cache_hierarchy.ruby_system.directory_controllers.responseToDir.m_msg_count       752648                       # Number of messages passed the buffer (Count)
board.cache_hierarchy.ruby_system.directory_controllers.responseToDir.m_buf_msgs     0.004352                       # Average number of messages in buffer ((Count/Tick))
board.cache_hierarchy.ruby_system.l1_controllers0.fullyBusyCycles           49                       # cycles for which number of transistions == max transitions (Unspecified)
board.cache_hierarchy.ruby_system.l1_controllers0.delayHistogram::samples       949452                       # delay_histogram (Unspecified)
board.cache_hierarchy.ruby_system.l1_controllers0.delayHistogram::mean     0.000112                       # delay_histogram (Unspecified)
board.cache_hierarchy.ruby_system.l1_controllers0.delayHistogram::stdev     0.027307                       # delay_histogram (Unspecified)
board.cache_hierarchy.ruby_system.l1_controllers0.delayHistogram::0       949434    100.00%    100.00% # delay_histogram (Unspecified)
board.cache_hierarchy.ruby_system.l1_controllers0.delayHistogram::2            2      0.00%    100.00% # delay_histogram (Unspecified)
board.cache_hierarchy.ruby_system.l1_controllers0.delayHistogram::4            5      0.00%    100.00% # delay_histogram (Unspecified)
board.cache_hierarchy.ruby_system.l1_controllers0.delayHistogram::6            3      0.00%    100.00% # delay_histogram (Unspecified)
board.cache_hierarchy.ruby_system.l1_controllers0.delayHistogram::8            8      0.00%    100.00% # delay_histogram (Unspecified)
board.cache_hierarchy.ruby_system.l1_controllers0.delayHistogram::total       949452                       # delay_histogram (Unspecified)
board.cache_hierarchy.ruby_system.l1_controllers0.L1Dcache.m_demand_hits     26206192                       # Number of cache demand hits (Unspecified)
board.cache_hierarchy.ruby_system.l1_controllers0.L1Dcache.m_demand_misses       471763                       # Number of cache demand misses (Unspecified)
board.cache_hierarchy.ruby_system.l1_controllers0.L1Dcache.m_demand_accesses     26677955                       # Number of cache demand accesses (Unspecified)
board.cache_hierarchy.ruby_system.l1_controllers0.L1Icache.m_demand_hits     10085766                       # Number of cache demand hits (Unspecified)
board.cache_hierarchy.ruby_system.l1_controllers0.L1Icache.m_demand_misses         3586                       # Number of cache demand misses (Unspecified)
board.cache_hierarchy.ruby_system.l1_controllers0.L1Icache.m_demand_accesses     10089352                       # Number of cache demand accesses (Unspecified)
board.cache_hierarchy.ruby_system.l1_controllers0.mandatoryQueue.m_msg_count     36767307                       # Number of messages passed the buffer (Count)
board.cache_hierarchy.ruby_system.l1_controllers0.mandatoryQueue.m_buf_msgs     0.212607                       # Average number of messages in buffer ((Count/Tick))
board.cache_hierarchy.ruby_system.l1_controllers0.mandatoryQueue.m_stall_time          333                       # Total number of ticks messages were stalled in this buffer (Tick)
board.cache_hierarchy.ruby_system.l1_controllers0.mandatoryQueue.m_avg_stall_time     0.000009                       # Average stall ticks per message ((Tick/Count))
board.cache_hierarchy.ruby_system.l1_controllers0.power_state.pwrStateResidencyTicks::UNDEFINED  57587576112                       # Cumulative time (in ticks) in various power states (Tick)
board.cache_hierarchy.ruby_system.l1_controllers0.prefetcher.RubyPrefetcher.numMissObserved            0                       # Number of misses observed (Unspecified)
board.cache_hierarchy.ruby_system.l1_controllers0.prefetcher.RubyPrefetcher.numAllocatedStreams            0                       # Number of streams allocated for prefetching (Unspecified)
board.cache_hierarchy.ruby_system.l1_controllers0.prefetcher.RubyPrefetcher.numPrefetchRequested            0                       # Number of prefetch requests made (Unspecified)
board.cache_hierarchy.ruby_system.l1_controllers0.prefetcher.RubyPrefetcher.numHits            0                       # Number of prefetched blocks accessed (for the first time) (Unspecified)
board.cache_hierarchy.ruby_system.l1_controllers0.prefetcher.RubyPrefetcher.numPartialHits            0                       # Number of misses observed for a block being prefetched (Unspecified)
board.cache_hierarchy.ruby_system.l1_controllers0.prefetcher.RubyPrefetcher.numPagesCrossed            0                       # Number of prefetches across pages (Unspecified)
board.cache_hierarchy.ruby_system.l1_controllers0.prefetcher.RubyPrefetcher.numMissedPrefetchedBlocks            0                       # Number of misses for blocks that were prefetched, yet missed (Unspecified)
board.cache_hierarchy.ruby_system.l1_controllers0.requestFromL1Cache.m_msg_count       915933                       # Number of messages passed the buffer (Count)
board.cache_hierarchy.ruby_system.l1_controllers0.requestFromL1Cache.m_buf_msgs     0.010593                       # Average number of messages in buffer ((Count/Tick))
board.cache_hierarchy.ruby_system.l1_controllers0.requestToL1Cache.m_msg_count        33514                       # Number of messages passed the buffer (Count)
board.cache_hierarchy.ruby_system.l1_controllers0.requestToL1Cache.m_buf_msgs     0.000194                       # Average number of messages in buffer ((Count/Tick))
board.cache_hierarchy.ruby_system.l1_controllers0.responseFromL1Cache.m_msg_count        33557                       # Number of messages passed the buffer (Count)
board.cache_hierarchy.ruby_system.l1_controllers0.responseFromL1Cache.m_buf_msgs     0.000388                       # Average number of messages in buffer ((Count/Tick))
board.cache_hierarchy.ruby_system.l1_controllers0.responseToL1Cache.m_msg_count       915938                       # Number of messages passed the buffer (Count)
board.cache_hierarchy.ruby_system.l1_controllers0.responseToL1Cache.m_buf_msgs     0.005296                       # Average number of messages in buffer ((Count/Tick))
board.cache_hierarchy.ruby_system.l1_controllers0.sequencer.power_state.pwrStateResidencyTicks::UNDEFINED  57587576112                       # Cumulative time (in ticks) in various power states (Tick)
board.cache_hierarchy.ruby_system.l1_controllers0.unblockFromL1Cache.m_msg_count       471758                       # Number of messages passed the buffer (Count)
board.cache_hierarchy.ruby_system.l1_controllers0.unblockFromL1Cache.m_buf_msgs     0.002728                       # Average number of messages in buffer ((Count/Tick))
board.cache_hierarchy.ruby_system.l1_controllers1.fullyBusyCycles           19                       # cycles for which number of transistions == max transitions (Unspecified)
board.cache_hierarchy.ruby_system.l1_controllers1.delayHistogram::samples       188715                       # delay_histogram (Unspecified)
board.cache_hierarchy.ruby_system.l1_controllers1.delayHistogram::mean     0.000032                       # delay_histogram (Unspecified)
board.cache_hierarchy.ruby_system.l1_controllers1.delayHistogram::stdev     0.013812                       # delay_histogram (Unspecified)
board.cache_hierarchy.ruby_system.l1_controllers1.delayHistogram::0       188714    100.00%    100.00% # delay_histogram (Unspecified)
board.cache_hierarchy.ruby_system.l1_controllers1.delayHistogram::6            1      0.00%    100.00% # delay_histogram (Unspecified)
board.cache_hierarchy.ruby_system.l1_controllers1.delayHistogram::total       188715                       # delay_histogram (Unspecified)
board.cache_hierarchy.ruby_system.l1_controllers1.L1Dcache.m_demand_hits      2901479                       # Number of cache demand hits (Unspecified)
board.cache_hierarchy.ruby_system.l1_controllers1.L1Dcache.m_demand_misses        94009                       # Number of cache demand misses (Unspecified)
board.cache_hierarchy.ruby_system.l1_controllers1.L1Dcache.m_demand_accesses      2995488                       # Number of cache demand accesses (Unspecified)
board.cache_hierarchy.ruby_system.l1_controllers1.L1Icache.m_demand_hits      1028480                       # Number of cache demand hits (Unspecified)
board.cache_hierarchy.ruby_system.l1_controllers1.L1Icache.m_demand_misses          535                       # Number of cache demand misses (Unspecified)
board.cache_hierarchy.ruby_system.l1_controllers1.L1Icache.m_demand_accesses      1029015                       # Number of cache demand accesses (Unspecified)
board.cache_hierarchy.ruby_system.l1_controllers1.mandatoryQueue.m_msg_count      4024503                       # Number of messages passed the buffer (Count)
board.cache_hierarchy.ruby_system.l1_controllers1.mandatoryQueue.m_buf_msgs     0.023272                       # Average number of messages in buffer ((Count/Tick))
board.cache_hierarchy.ruby_system.l1_controllers1.power_state.pwrStateResidencyTicks::UNDEFINED  57587576112                       # Cumulative time (in ticks) in various power states (Tick)
board.cache_hierarchy.ruby_system.l1_controllers1.prefetcher.RubyPrefetcher.numMissObserved            0                       # Number of misses observed (Unspecified)
board.cache_hierarchy.ruby_system.l1_controllers1.prefetcher.RubyPrefetcher.numAllocatedStreams            0                       # Number of streams allocated for prefetching (Unspecified)
board.cache_hierarchy.ruby_system.l1_controllers1.prefetcher.RubyPrefetcher.numPrefetchRequested            0                       # Number of prefetch requests made (Unspecified)
board.cache_hierarchy.ruby_system.l1_controllers1.prefetcher.RubyPrefetcher.numHits            0                       # Number of prefetched blocks accessed (for the first time) (Unspecified)
board.cache_hierarchy.ruby_system.l1_controllers1.prefetcher.RubyPrefetcher.numPartialHits            0                       # Number of misses observed for a block being prefetched (Unspecified)
board.cache_hierarchy.ruby_system.l1_controllers1.prefetcher.RubyPrefetcher.numPagesCrossed            0                       # Number of prefetches across pages (Unspecified)
board.cache_hierarchy.ruby_system.l1_controllers1.prefetcher.RubyPrefetcher.numMissedPrefetchedBlocks            0                       # Number of misses for blocks that were prefetched, yet missed (Unspecified)
board.cache_hierarchy.ruby_system.l1_controllers1.requestFromL1Cache.m_msg_count       157752                       # Number of messages passed the buffer (Count)
board.cache_hierarchy.ruby_system.l1_controllers1.requestFromL1Cache.m_buf_msgs     0.001824                       # Average number of messages in buffer ((Count/Tick))
board.cache_hierarchy.ruby_system.l1_controllers1.requestToL1Cache.m_msg_count        30961                       # Number of messages passed the buffer (Count)
board.cache_hierarchy.ruby_system.l1_controllers1.requestToL1Cache.m_buf_msgs     0.000179                       # Average number of messages in buffer ((Count/Tick))
board.cache_hierarchy.ruby_system.l1_controllers1.responseFromL1Cache.m_msg_count        30973                       # Number of messages passed the buffer (Count)
board.cache_hierarchy.ruby_system.l1_controllers1.responseFromL1Cache.m_buf_msgs     0.000358                       # Average number of messages in buffer ((Count/Tick))
board.cache_hierarchy.ruby_system.l1_controllers1.responseToL1Cache.m_msg_count       157754                       # Number of messages passed the buffer (Count)
board.cache_hierarchy.ruby_system.l1_controllers1.responseToL1Cache.m_buf_msgs     0.000912                       # Average number of messages in buffer ((Count/Tick))
board.cache_hierarchy.ruby_system.l1_controllers1.sequencer.power_state.pwrStateResidencyTicks::UNDEFINED  57587576112                       # Cumulative time (in ticks) in various power states (Tick)
board.cache_hierarchy.ruby_system.l1_controllers1.unblockFromL1Cache.m_msg_count        94002                       # Number of messages passed the buffer (Count)
board.cache_hierarchy.ruby_system.l1_controllers1.unblockFromL1Cache.m_buf_msgs     0.000544                       # Average number of messages in buffer ((Count/Tick))
board.cache_hierarchy.ruby_system.l1_controllers2.fullyBusyCycles           14                       # cycles for which number of transistions == max transitions (Unspecified)
board.cache_hierarchy.ruby_system.l1_controllers2.delayHistogram::samples       188635                       # delay_histogram (Unspecified)
board.cache_hierarchy.ruby_system.l1_controllers2.delayHistogram::mean     0.000127                       # delay_histogram (Unspecified)
board.cache_hierarchy.ruby_system.l1_controllers2.delayHistogram::stdev     0.027629                       # delay_histogram (Unspecified)
board.cache_hierarchy.ruby_system.l1_controllers2.delayHistogram::0       188630    100.00%    100.00% # delay_histogram (Unspecified)
board.cache_hierarchy.ruby_system.l1_controllers2.delayHistogram::2            2      0.00%    100.00% # delay_histogram (Unspecified)
board.cache_hierarchy.ruby_system.l1_controllers2.delayHistogram::6            2      0.00%    100.00% # delay_histogram (Unspecified)
board.cache_hierarchy.ruby_system.l1_controllers2.delayHistogram::8            1      0.00%    100.00% # delay_histogram (Unspecified)
board.cache_hierarchy.ruby_system.l1_controllers2.delayHistogram::total       188635                       # delay_histogram (Unspecified)
board.cache_hierarchy.ruby_system.l1_controllers2.L1Dcache.m_demand_hits      2896600                       # Number of cache demand hits (Unspecified)
board.cache_hierarchy.ruby_system.l1_controllers2.L1Dcache.m_demand_misses        94012                       # Number of cache demand misses (Unspecified)
board.cache_hierarchy.ruby_system.l1_controllers2.L1Dcache.m_demand_accesses      2990612                       # Number of cache demand accesses (Unspecified)
board.cache_hierarchy.ruby_system.l1_controllers2.L1Icache.m_demand_hits      1021135                       # Number of cache demand hits (Unspecified)
board.cache_hierarchy.ruby_system.l1_controllers2.L1Icache.m_demand_misses          539                       # Number of cache demand misses (Unspecified)
board.cache_hierarchy.ruby_system.l1_controllers2.L1Icache.m_demand_accesses      1021674                       # Number of cache demand accesses (Unspecified)
board.cache_hierarchy.ruby_system.l1_controllers2.mandatoryQueue.m_msg_count      4012286                       # Number of messages passed the buffer (Count)
board.cache_hierarchy.ruby_system.l1_controllers2.mandatoryQueue.m_buf_msgs     0.023201                       # Average number of messages in buffer ((Count/Tick))
board.cache_hierarchy.ruby_system.l1_controllers2.power_state.pwrStateResidencyTicks::UNDEFINED  57587576112                       # Cumulative time (in ticks) in various power states (Tick)
board.cache_hierarchy.ruby_system.l1_controllers2.prefetcher.RubyPrefetcher.numMissObserved            0                       # Number of misses observed (Unspecified)
board.cache_hierarchy.ruby_system.l1_controllers2.prefetcher.RubyPrefetcher.numAllocatedStreams            0                       # Number of streams allocated for prefetching (Unspecified)
board.cache_hierarchy.ruby_system.l1_controllers2.prefetcher.RubyPrefetcher.numPrefetchRequested            0                       # Number of prefetch requests made (Unspecified)
board.cache_hierarchy.ruby_system.l1_controllers2.prefetcher.RubyPrefetcher.numHits            0                       # Number of prefetched blocks accessed (for the first time) (Unspecified)
board.cache_hierarchy.ruby_system.l1_controllers2.prefetcher.RubyPrefetcher.numPartialHits            0                       # Number of misses observed for a block being prefetched (Unspecified)
board.cache_hierarchy.ruby_system.l1_controllers2.prefetcher.RubyPrefetcher.numPagesCrossed            0                       # Number of prefetches across pages (Unspecified)
board.cache_hierarchy.ruby_system.l1_controllers2.prefetcher.RubyPrefetcher.numMissedPrefetchedBlocks            0                       # Number of misses for blocks that were prefetched, yet missed (Unspecified)
board.cache_hierarchy.ruby_system.l1_controllers2.requestFromL1Cache.m_msg_count       157766                       # Number of messages passed the buffer (Count)
board.cache_hierarchy.ruby_system.l1_controllers2.requestFromL1Cache.m_buf_msgs     0.001825                       # Average number of messages in buffer ((Count/Tick))
board.cache_hierarchy.ruby_system.l1_controllers2.requestToL1Cache.m_msg_count        30864                       # Number of messages passed the buffer (Count)
board.cache_hierarchy.ruby_system.l1_controllers2.requestToL1Cache.m_buf_msgs     0.000178                       # Average number of messages in buffer ((Count/Tick))
board.cache_hierarchy.ruby_system.l1_controllers2.responseFromL1Cache.m_msg_count        30866                       # Number of messages passed the buffer (Count)
board.cache_hierarchy.ruby_system.l1_controllers2.responseFromL1Cache.m_buf_msgs     0.000357                       # Average number of messages in buffer ((Count/Tick))
board.cache_hierarchy.ruby_system.l1_controllers2.responseToL1Cache.m_msg_count       157771                       # Number of messages passed the buffer (Count)
board.cache_hierarchy.ruby_system.l1_controllers2.responseToL1Cache.m_buf_msgs     0.000912                       # Average number of messages in buffer ((Count/Tick))
board.cache_hierarchy.ruby_system.l1_controllers2.sequencer.power_state.pwrStateResidencyTicks::UNDEFINED  57587576112                       # Cumulative time (in ticks) in various power states (Tick)
board.cache_hierarchy.ruby_system.l1_controllers2.unblockFromL1Cache.m_msg_count        93994                       # Number of messages passed the buffer (Count)
board.cache_hierarchy.ruby_system.l1_controllers2.unblockFromL1Cache.m_buf_msgs     0.000544                       # Average number of messages in buffer ((Count/Tick))
board.cache_hierarchy.ruby_system.l1_controllers3.fullyBusyCycles           19                       # cycles for which number of transistions == max transitions (Unspecified)
board.cache_hierarchy.ruby_system.l1_controllers3.delayHistogram::samples       188677                       # delay_histogram (Unspecified)
board.cache_hierarchy.ruby_system.l1_controllers3.delayHistogram::mean     0.000233                       # delay_histogram (Unspecified)
[...]
board.processor.cores3.core.branchPred.ras.squashes            0                       # Number of times the stack operation was squashed due to wrong speculation. (Count)
board.processor.cores3.core.branchPred.ras.used            0                       # Number of times the RAS is the provider (Count)
board.processor.cores3.core.branchPred.ras.correct            0                       # Number of times the RAS is the provider and the prediction is correct (Count)
board.processor.cores3.core.branchPred.ras.incorrect            0                       # Number of times the RAS is the provider and the prediction is wrong (Count)
board.processor.cores3.core.commitStats0.numInsts      5086129                       # Number of instructions committed (thread level) (Count)
board.processor.cores3.core.commitStats0.numOps      7397818                       # Number of ops (including micro ops) committed (thread level) (Count)
board.processor.cores3.core.commitStats0.numInstsNotNOP            0                       # Number of instructions committed excluding NOPs or prefetches (Count)
board.processor.cores3.core.commitStats0.numOpsNotNOP            0                       # Number of Ops (including micro ops) Simulated (Count)
board.processor.cores3.core.commitStats0.cpi     6.171661                       # CPI: cycles per instruction (thread level) ((Cycle/Count))
board.processor.cores3.core.commitStats0.ipc     0.162031                       # IPC: instructions per cycle (thread level) ((Count/Cycle))
board.processor.cores3.core.commitStats0.numMemRefs            0                       # Number of memory references committed (Count)
board.processor.cores3.core.commitStats0.numFpInsts            0                       # Number of float instructions (Count)
board.processor.cores3.core.commitStats0.numIntInsts            0                       # Number of integer instructions (Count)
board.processor.cores3.core.commitStats0.numLoadInsts            0                       # Number of load instructions (Count)
board.processor.cores3.core.commitStats0.numStoreInsts            0                       # Number of store instructions (Count)
board.processor.cores3.core.commitStats0.numVecInsts            0                       # Number of vector instructions (Count)
board.processor.cores3.core.commitStats0.committedInstType::No_OpClass           41      0.00%      0.00% # Class of committed instruction. (Count)
board.processor.cores3.core.commitStats0.committedInstType::IntAlu      3135077     42.38%     42.38% # Class of committed instruction. (Count)
board.processor.cores3.core.commitStats0.committedInstType::IntMult            4      0.00%     42.38% # Class of committed instruction. (Count)
board.processor.cores3.core.commitStats0.committedInstType::IntDiv           22      0.00%     42.38% # Class of committed instruction. (Count)
board.processor.cores3.core.commitStats0.committedInstType::FloatAdd       500004      6.76%     49.14% # Class of committed instruction. (Count)
board.processor.cores3.core.commitStats0.committedInstType::FloatCmp            0      0.00%     49.14% # Class of committed instruction. (Count)
board.processor.cores3.core.commitStats0.committedInstType::FloatCvt            0      0.00%     49.14% # Class of committed instruction. (Count)
board.processor.cores3.core.commitStats0.committedInstType::FloatMult            0      0.00%     49.14% # Class of committed instruction. (Count)
board.processor.cores3.core.commitStats0.committedInstType::FloatMultAcc            0      0.00%     49.14% # Class of committed instruction. (Count)
board.processor.cores3.core.commitStats0.committedInstType::FloatDiv            0      0.00%     49.14% # Class of committed instruction. (Count)
board.processor.cores3.core.commitStats0.committedInstType::FloatMisc            0      0.00%     49.14% # Class of committed instruction. (Count)
board.processor.cores3.core.commitStats0.committedInstType::FloatSqrt            0      0.00%     49.14% # Class of committed instruction. (Count)
board.processor.cores3.core.commitStats0.committedInstType::SimdAdd            0      0.00%     49.14% # Class of committed instruction. (Count)
board.processor.cores3.core.commitStats0.committedInstType::SimdAddAcc            0      0.00%     49.14% # Class of committed instruction. (Count)
board.processor.cores3.core.commitStats0.committedInstType::SimdAlu           16      0.00%     49.14% # Class of committed instruction. (Count)
board.processor.cores3.core.commitStats0.committedInstType::SimdCmp            0      0.00%     49.14% # Class of committed instruction. (Count)
board.processor.cores3.core.commitStats0.committedInstType::SimdCvt           20      0.00%     49.14% # Class of committed instruction. (Count)
board.processor.cores3.core.commitStats0.committedInstType::SimdMisc           25      0.00%     49.14% # Class of committed instruction. (Count)
board.processor.cores3.core.commitStats0.committedInstType::SimdMult            0      0.00%     49.14% # Class of committed instruction. (Count)
board.processor.cores3.core.commitStats0.committedInstType::SimdMultAcc            0      0.00%     49.14% # Class of committed instruction. (Count)
board.processor.cores3.core.commitStats0.committedInstType::SimdMatMultAcc            0      0.00%     49.14% # Class of committed instruction. (Count)
board.processor.cores3.core.commitStats0.committedInstType::SimdShift            0      0.00%     49.14% # Class of committed instruction. (Count)
board.processor.cores3.core.commitStats0.committedInstType::SimdShiftAcc            0      0.00%     49.14% # Class of committed instruction. (Count)
board.processor.cores3.core.commitStats0.committedInstType::SimdDiv            0      0.00%     49.14% # Class of committed instruction. (Count)
board.processor.cores3.core.commitStats0.committedInstType::SimdSqrt            0      0.00%     49.14% # Class of committed instruction. (Count)
board.processor.cores3.core.commitStats0.committedInstType::SimdFloatAdd       250000      3.38%     52.52% # Class of committed instruction. (Count)
board.processor.cores3.core.commitStats0.committedInstType::SimdFloatAlu            0      0.00%     52.52% # Class of committed instruction. (Count)
board.processor.cores3.core.commitStats0.committedInstType::SimdFloatCmp            0      0.00%     52.52% # Class of committed instruction. (Count)
board.processor.cores3.core.commitStats0.committedInstType::SimdFloatCvt            0      0.00%     52.52% # Class of committed instruction. (Count)
board.processor.cores3.core.commitStats0.committedInstType::SimdFloatDiv            0      0.00%     52.52% # Class of committed instruction. (Count)
board.processor.cores3.core.commitStats0.committedInstType::SimdFloatMisc            0      0.00%     52.52% # Class of committed instruction. (Count)
board.processor.cores3.core.commitStats0.committedInstType::SimdFloatMult       250000      3.38%     55.90% # Class of committed instruction. (Count)
board.processor.cores3.core.commitStats0.committedInstType::SimdFloatMultAcc            0      0.00%     55.90% # Class of committed instruction. (Count)
board.processor.cores3.core.commitStats0.committedInstType::SimdFloatMatMultAcc            0      0.00%     55.90% # Class of committed instruction. (Count)
board.processor.cores3.core.commitStats0.committedInstType::SimdFloatSqrt            0      0.00%     55.90% # Class of committed instruction. (Count)
board.processor.cores3.core.commitStats0.committedInstType::SimdReduceAdd            0      0.00%     55.90% # Class of committed instruction. (Count)
board.processor.cores3.core.commitStats0.committedInstType::SimdReduceAlu            0      0.00%     55.90% # Class of committed instruction. (Count)
board.processor.cores3.core.commitStats0.committedInstType::SimdReduceCmp            0      0.00%     55.90% # Class of committed instruction. (Count)
board.processor.cores3.core.commitStats0.committedInstType::SimdFloatReduceAdd            0      0.00%     55.90% # Class of committed instruction. (Count)
board.processor.cores3.core.commitStats0.committedInstType::SimdFloatReduceCmp            0      0.00%     55.90% # Class of committed instruction. (Count)
board.processor.cores3.core.commitStats0.committedInstType::SimdAes            0      0.00%     55.90% # Class of committed instruction. (Count)
board.processor.cores3.core.commitStats0.committedInstType::SimdAesMix            0      0.00%     55.90% # Class of committed instruction. (Count)
board.processor.cores3.core.commitStats0.committedInstType::SimdSha1Hash            0      0.00%     55.90% # Class of committed instruction. (Count)
board.processor.cores3.core.commitStats0.committedInstType::SimdSha1Hash2            0      0.00%     55.90% # Class of committed instruction. (Count)
board.processor.cores3.core.commitStats0.committedInstType::SimdSha256Hash            0      0.00%     55.90% # Class of committed instruction. (Count)
board.processor.cores3.core.commitStats0.committedInstType::SimdSha256Hash2            0      0.00%     55.90% # Class of committed instruction. (Count)
board.processor.cores3.core.commitStats0.committedInstType::SimdShaSigma2            0      0.00%     55.90% # Class of committed instruction. (Count)
board.processor.cores3.core.commitStats0.committedInstType::SimdShaSigma3            0      0.00%     55.90% # Class of committed instruction. (Count)
board.processor.cores3.core.commitStats0.committedInstType::SimdPredAlu            0      0.00%     55.90% # Class of committed instruction. (Count)
board.processor.cores3.core.commitStats0.committedInstType::Matrix            0      0.00%     55.90% # Class of committed instruction. (Count)
board.processor.cores3.core.commitStats0.committedInstType::MatrixMov            0      0.00%     55.90% # Class of committed instruction. (Count)
board.processor.cores3.core.commitStats0.committedInstType::MatrixOP            0      0.00%     55.90% # Class of committed instruction. (Count)
board.processor.cores3.core.commitStats0.committedInstType::MemRead      2012392     27.20%     83.10% # Class of committed instruction. (Count)
board.processor.cores3.core.commitStats0.committedInstType::MemWrite       250173      3.38%     86.48% # Class of committed instruction. (Count)
board.processor.cores3.core.commitStats0.committedInstType::FloatMemRead       750025     10.14%     96.62% # Class of committed instruction. (Count)
board.processor.cores3.core.commitStats0.committedInstType::FloatMemWrite       250019      3.38%    100.00% # Class of committed instruction. (Count)
board.processor.cores3.core.commitStats0.committedInstType::IprAccess            0      0.00%    100.00% # Class of committed instruction. (Count)
board.processor.cores3.core.commitStats0.committedInstType::InstPrefetch            0      0.00%    100.00% # Class of committed instruction. (Count)
board.processor.cores3.core.commitStats0.committedInstType::SimdUnitStrideLoad            0      0.00%    100.00% # Class of committed instruction. (Count)
board.processor.cores3.core.commitStats0.committedInstType::SimdUnitStrideStore            0      0.00%    100.00% # Class of committed instruction. (Count)
board.processor.cores3.core.commitStats0.committedInstType::SimdUnitStrideMaskLoad            0      0.00%    100.00% # Class of committed instruction. (Count)
board.processor.cores3.core.commitStats0.committedInstType::SimdUnitStrideMaskStore            0      0.00%    100.00% # Class of committed instruction. (Count)
board.processor.cores3.core.commitStats0.committedInstType::SimdStridedLoad            0      0.00%    100.00% # Class of committed instruction. (Count)
board.processor.cores3.core.commitStats0.committedInstType::SimdStridedStore            0      0.00%    100.00% # Class of committed instruction. (Count)
board.processor.cores3.core.commitStats0.committedInstType::SimdIndexedLoad            0      0.00%    100.00% # Class of committed instruction. (Count)
board.processor.cores3.core.commitStats0.committedInstType::SimdIndexedStore            0      0.00%    100.00% # Class of committed instruction. (Count)
board.processor.cores3.core.commitStats0.committedInstType::SimdWholeRegisterLoad            0      0.00%    100.00% # Class of committed instruction. (Count)
board.processor.cores3.core.commitStats0.committedInstType::SimdWholeRegisterStore            0      0.00%    100.00% # Class of committed instruction. (Count)
board.processor.cores3.core.commitStats0.committedInstType::SimdUnitStrideFaultOnlyFirstLoad            0      0.00%    100.00% # Class of committed instruction. (Count)
board.processor.cores3.core.commitStats0.committedInstType::SimdUnitStrideSegmentedLoad            0      0.00%    100.00% # Class of committed instruction. (Count)
board.processor.cores3.core.commitStats0.committedInstType::SimdUnitStrideSegmentedStore            0      0.00%    100.00% # Class of committed instruction. (Count)
board.processor.cores3.core.commitStats0.committedInstType::SimdExt            0      0.00%    100.00% # Class of committed instruction. (Count)
board.processor.cores3.core.commitStats0.committedInstType::SimdFloatExt            0      0.00%    100.00% # Class of committed instruction. (Count)
board.processor.cores3.core.commitStats0.committedInstType::SimdConfig            0      0.00%    100.00% # Class of committed instruction. (Count)
board.processor.cores3.core.commitStats0.committedInstType::total      7397818                       # Class of committed instruction. (Count)
board.processor.cores3.core.executeStats0.numInsts            0                       # Number of executed instructions (Count)
board.processor.cores3.core.executeStats0.numNop            0                       # Number of nop insts executed (Count)
board.processor.cores3.core.executeStats0.numBranches            0                       # Number of branches executed (Count)
board.processor.cores3.core.executeStats0.numLoadInsts            0                       # Number of load instructions executed (Count)
board.processor.cores3.core.executeStats0.numStoreInsts            0                       # Number of stores executed (Count)
board.processor.cores3.core.executeStats0.instRate            0                       # Inst execution rate ((Count/Cycle))
board.processor.cores3.core.executeStats0.numFpRegWrites            0                       # Number of times the floating registers were written (Count)
board.processor.cores3.core.executeStats0.numMemRefs            0                       # Number of memory refs (Count)
board.processor.cores3.core.executeStats0.numVecAluAccesses            0                       # Number of vector alu accesses (Count)
board.processor.cores3.core.executeStats0.numDiscardedOps      1049051                       # Number of ops (including micro ops) which were discarded before commit (Count)
board.processor.cores3.core.fetch2.intInstructions            0                       # Number of integer instructions successfully decoded (Count)
board.processor.cores3.core.fetch2.fpInstructions            0                       # Number of floating point instructions successfully decoded (Count)
board.processor.cores3.core.fetch2.vecInstructions            0                       # Number of SIMD instructions successfully decoded (Count)
board.processor.cores3.core.fetch2.loadInstructions            0                       # Number of memory load instructions successfully decoded (Count)
board.processor.cores3.core.fetch2.storeInstructions            0                       # Number of memory store instructions successfully decoded (Count)
board.processor.cores3.core.fetch2.amoInstructions            0                       # Number of memory atomic instructions successfully decoded (Count)
board.processor.cores3.core.fetchStats0.numInsts            0                       # Number of instructions fetched (thread level) (Count)
board.processor.cores3.core.fetchStats0.numOps            0                       # Number of ops (including micro ops) fetched (thread level) (Count)
board.processor.cores3.core.fetchStats0.fetchRate            0                       # Number of inst fetches per cycle ((Count/Cycle))
board.processor.cores3.core.fetchStats0.branchRate            0                       # Number of branch fetches per cycle (Ratio)
board.processor.cores3.core.fetchStats0.numFetchSuspends            0                       # Number of times Execute suspended instruction fetching (Count)
board.processor.cores3.core.interrupts.clk_domain.clock         5328                       # Clock period in ticks (Tick)
board.processor.cores3.core.mmu.dtb.rdAccesses      2774642                       # TLB accesses on read requests (Count)
board.processor.cores3.core.mmu.dtb.wrAccesses       500206                       # TLB accesses on write requests (Count)
board.processor.cores3.core.mmu.dtb.rdMisses         1001                       # TLB misses on read requests (Count)
board.processor.cores3.core.mmu.dtb.wrMisses          492                       # TLB misses on write requests (Count)
board.processor.cores3.core.mmu.dtb.walker.power_state.pwrStateResidencyTicks::UNDEFINED  57587576112                       # Cumulative time (in ticks) in various power states (Tick)
board.processor.cores3.core.mmu.itb.rdAccesses            0                       # TLB accesses on read requests (Count)
board.processor.cores3.core.mmu.itb.wrAccesses      1026208                       # TLB accesses on write requests (Count)
board.processor.cores3.core.mmu.itb.rdMisses            0                       # TLB misses on read requests (Count)
board.processor.cores3.core.mmu.itb.wrMisses           22                       # TLB misses on write requests (Count)
board.processor.cores3.core.mmu.itb.walker.power_state.pwrStateResidencyTicks::UNDEFINED  57587576112                       # Cumulative time (in ticks) in various power states (Tick)
board.processor.cores3.core.power_state.pwrStateResidencyTicks::ON  57587576112                       # Cumulative time (in ticks) in various power states (Tick)
board.processor.cores3.core.thread_0.numInsts      5086129                       # Number of Instructions committed (Count)
board.processor.cores3.core.thread_0.numOps      7397818                       # Number of Ops committed (Count)
board.processor.cores3.core.thread_0.numMemRefs            0                       # Number of Memory References (Count)
board.workload.inst.arm                             0                       # number of arm instructions executed (Count)
board.workload.inst.quiesce                         0                       # number of quiesce instructions executed (Count)
board.processor.cores0.core.idleCycles       82174223                       # Total number of cycles that the object has spent stopped (Unspecified)
board.processor.cores0.core.tickCycles       90761441                       # Number of cycles that the object actually ticked (Unspecified)
board.processor.cores1.core.idleCycles       20515037                       # Total number of cycles that the object has spent stopped (Unspecified)
board.processor.cores1.core.tickCycles       10892114                       # Number of cycles that the object actually ticked (Unspecified)
board.processor.cores2.core.idleCycles       20553700                       # Total number of cycles that the object has spent stopped (Unspecified)
board.processor.cores2.core.tickCycles       10842840                       # Number of cycles that the object actually ticked (Unspecified)
board.processor.cores3.core.idleCycles       20516739                       # Total number of cycles that the object has spent stopped (Unspecified)
board.processor.cores3.core.tickCycles       10873124                       # Number of cycles that the object actually ticked (Unspecified)

---------- End Simulation Statistics   ----------
