
---------- Begin Simulation Statistics ----------
simSeconds                                   0.000486                       # Number of seconds simulated (Second)
simTicks                                    486339507                       # Number of ticks simulated (Tick)
finalTick                                  2060664939                       # Number of ticks from beginning of simulation (restored from checkpoints and never reset) (Tick)
simFreq                                  1000000000000                       # The number of ticks per simulated second ((Tick/Second))
hostSeconds                                     28.34                       # Real time elapsed on the host (Second)
hostTickRate                                 17161670                       # The number of ticks simulated per host second (ticks/s) ((Tick/Second))
hostMemory                                    4795172                       # Number of bytes of host memory used (Byte)
simInsts                                      3733540                       # Number of instructions simulated (Count)
simOps                                        6599330                       # Number of ops (including micro ops) simulated (Count)
hostInstRate                                   131746                       # Simulator instruction rate (inst/s) ((Count/Second))
hostOpRate                                     232872                       # Simulator op (including micro ops) rate (op/s) ((Count/Second))
board.cache_hierarchy.clusters0.dptw_cache.blockedCycles::no_mshrs            0                       # number of cycles access was blocked (Cycle)
board.cache_hierarchy.clusters0.dptw_cache.blockedCycles::no_targets            0                       # number of cycles access was blocked (Cycle)
board.cache_hierarchy.clusters0.dptw_cache.blockedCauses::no_mshrs            0                       # number of times access was blocked (Count)
board.cache_hierarchy.clusters0.dptw_cache.blockedCauses::no_targets            0                       # number of times access was blocked (Count)
board.cache_hierarchy.clusters0.dptw_cache.avgBlocked::no_mshrs          nan                       # average number of cycles each access was blocked ((Cycle/Count))
board.cache_hierarchy.clusters0.dptw_cache.avgBlocked::no_targets          nan                       # average number of cycles each access was blocked ((Cycle/Count))
board.cache_hierarchy.clusters0.dptw_cache.replacements            0                       # number of replacements (Count)
board.cache_hierarchy.clusters0.dptw_cache.power_state.pwrStateResidencyTicks::UNDEFINED   2060664939                       # Cumulative time (in ticks) in various power states (Tick)
board.cache_hierarchy.clusters0.dptw_cache.tags.tagsInUse            0                       # Average ticks per tags in use ((Tick/Count))
board.cache_hierarchy.clusters0.dptw_cache.tags.totalRefs            0                       # Total number of references to valid blocks. (Count)
board.cache_hierarchy.clusters0.dptw_cache.tags.sampledRefs            0                       # Sample count of references to valid blocks. (Count)
board.cache_hierarchy.clusters0.dptw_cache.tags.avgRefs          nan                       # Average number of references to valid blocks. ((Count/Count))
board.cache_hierarchy.clusters0.dptw_cache.tags.warmupTick            0                       # The tick when the warmup percentage was hit. (Tick)
board.cache_hierarchy.clusters0.dptw_cache.tags.tagAccesses            0                       # Number of tag accesses (Count)
board.cache_hierarchy.clusters0.dptw_cache.tags.dataAccesses            0                       # Number of data accesses (Count)
board.cache_hierarchy.clusters0.dptw_cache.tags.power_state.pwrStateResidencyTicks::UNDEFINED   2060664939                       # Cumulative time (in ticks) in various power states (Tick)
board.cache_hierarchy.clusters0.iptw_cache.blockedCycles::no_mshrs            0                       # number of cycles access was blocked (Cycle)
board.cache_hierarchy.clusters0.iptw_cache.blockedCycles::no_targets            0                       # number of cycles access was blocked (Cycle)
board.cache_hierarchy.clusters0.iptw_cache.blockedCauses::no_mshrs            0                       # number of times access was blocked (Count)
board.cache_hierarchy.clusters0.iptw_cache.blockedCauses::no_targets            0                       # number of times access was blocked (Count)
board.cache_hierarchy.clusters0.iptw_cache.avgBlocked::no_mshrs          nan                       # average number of cycles each access was blocked ((Cycle/Count))
board.cache_hierarchy.clusters0.iptw_cache.avgBlocked::no_targets          nan                       # average number of cycles each access was blocked ((Cycle/Count))
board.cache_hierarchy.clusters0.iptw_cache.replacements            0                       # number of replacements (Count)
board.cache_hierarchy.clusters0.iptw_cache.power_state.pwrStateResidencyTicks::UNDEFINED   2060664939                       # Cumulative time (in ticks) in various power states (Tick)
board.cache_hierarchy.clusters0.iptw_cache.tags.tagsInUse            0                       # Average ticks per tags in use ((Tick/Count))
board.cache_hierarchy.clusters0.iptw_cache.tags.totalRefs            0                       # Total number of references to valid blocks. (Count)
board.cache_hierarchy.clusters0.iptw_cache.tags.sampledRefs            0                       # Sample count of references to valid blocks. (Count)
board.cache_hierarchy.clusters0.iptw_cache.tags.avgRefs          nan                       # Average number of references to valid blocks. ((Count/Count))
board.cache_hierarchy.clusters0.iptw_cache.tags.warmupTick            0                       # The tick when the warmup percentage was hit. (Tick)
board.cache_hierarchy.clusters0.iptw_cache.tags.tagAccesses            0                       # Number of tag accesses (Count)
board.cache_hierarchy.clusters0.iptw_cache.tags.dataAccesses            0                       # Number of data accesses (Count)
board.cache_hierarchy.clusters0.iptw_cache.tags.power_state.pwrStateResidencyTicks::UNDEFINED   2060664939                       # Cumulative time (in ticks) in various power states (Tick)
board.cache_hierarchy.clusters0.l1d_cache.demandHits::processor.cores0.core.data       236798                       # number of demand (read+write) hits (Count)
board.cache_hierarchy.clusters0.l1d_cache.demandHits::total       236798                       # number of demand (read+write) hits (Count)
board.cache_hierarchy.clusters0.l1d_cache.overallHits::processor.cores0.core.data       236798                       # number of overall hits (Count)
board.cache_hierarchy.clusters0.l1d_cache.overallHits::total       236798                       # number of overall hits (Count)
board.cache_hierarchy.clusters0.l1d_cache.demandMisses::processor.cores0.core.data        14693                       # number of demand (read+write) misses (Count)
board.cache_hierarchy.clusters0.l1d_cache.demandMisses::total        14693                       # number of demand (read+write) misses (Count)
board.cache_hierarchy.clusters0.l1d_cache.overallMisses::processor.cores0.core.data        14693                       # number of overall misses (Count)
board.cache_hierarchy.clusters0.l1d_cache.overallMisses::total        14693                       # number of overall misses (Count)
board.cache_hierarchy.clusters0.l1d_cache.demandMissLatency::processor.cores0.core.data    196115355                       # number of demand (read+write) miss ticks (Tick)
board.cache_hierarchy.clusters0.l1d_cache.demandMissLatency::total    196115355                       # number of demand (read+write) miss ticks (Tick)
board.cache_hierarchy.clusters0.l1d_cache.overallMissLatency::processor.cores0.core.data    196115355                       # number of overall miss ticks (Tick)
board.cache_hierarchy.clusters0.l1d_cache.overallMissLatency::total    196115355                       # number of overall miss ticks (Tick)
board.cache_hierarchy.clusters0.l1d_cache.demandAccesses::processor.cores0.core.data       251491                       # number of demand (read+write) accesses (Count)
board.cache_hierarchy.clusters0.l1d_cache.demandAccesses::total       251491                       # number of demand (read+write) accesses (Count)
board.cache_hierarchy.clusters0.l1d_cache.overallAccesses::processor.cores0.core.data       251491                       # number of overall (read+write) accesses (Count)
board.cache_hierarchy.clusters0.l1d_cache.overallAccesses::total       251491                       # number of overall (read+write) accesses (Count)
board.cache_hierarchy.clusters0.l1d_cache.demandMissRate::processor.cores0.core.data     0.058424                       # miss rate for demand accesses (Ratio)
board.cache_hierarchy.clusters0.l1d_cache.demandMissRate::total     0.058424                       # miss rate for demand accesses (Ratio)
board.cache_hierarchy.clusters0.l1d_cache.overallMissRate::processor.cores0.core.data     0.058424                       # miss rate for overall accesses (Ratio)
board.cache_hierarchy.clusters0.l1d_cache.overallMissRate::total     0.058424                       # miss rate for overall accesses (Ratio)
board.cache_hierarchy.clusters0.l1d_cache.demandAvgMissLatency::processor.cores0.core.data 13347.536582                       # average overall miss latency in ticks ((Tick/Count))
board.cache_hierarchy.clusters0.l1d_cache.demandAvgMissLatency::total 13347.536582                       # average overall miss latency in ticks ((Tick/Count))
board.cache_hierarchy.clusters0.l1d_cache.overallAvgMissLatency::processor.cores0.core.data 13347.536582                       # average overall miss latency ((Tick/Count))
board.cache_hierarchy.clusters0.l1d_cache.overallAvgMissLatency::total 13347.536582                       # average overall miss latency ((Tick/Count))
board.cache_hierarchy.clusters0.l1d_cache.blockedCycles::no_mshrs            0                       # number of cycles access was blocked (Cycle)
board.cache_hierarchy.clusters0.l1d_cache.blockedCycles::no_targets            0                       # number of cycles access was blocked (Cycle)
board.cache_hierarchy.clusters0.l1d_cache.blockedCauses::no_mshrs            0                       # number of times access was blocked (Count)
board.cache_hierarchy.clusters0.l1d_cache.blockedCauses::no_targets            0                       # number of times access was blocked (Count)
board.cache_hierarchy.clusters0.l1d_cache.avgBlocked::no_mshrs          nan                       # average number of cycles each access was blocked ((Cycle/Count))
board.cache_hierarchy.clusters0.l1d_cache.avgBlocked::no_targets          nan                       # average number of cycles each access was blocked ((Cycle/Count))
board.cache_hierarchy.clusters0.l1d_cache.writebacks::writebacks         2285                       # number of writebacks (Count)
board.cache_hierarchy.clusters0.l1d_cache.writebacks::total         2285                       # number of writebacks (Count)
board.cache_hierarchy.clusters0.l1d_cache.demandMshrHits::processor.cores0.core.data         6239                       # number of demand (read+write) MSHR hits (Count)
board.cache_hierarchy.clusters0.l1d_cache.demandMshrHits::total         6239                       # number of demand (read+write) MSHR hits (Count)
board.cache_hierarchy.clusters0.l1d_cache.overallMshrHits::processor.cores0.core.data         6239                       # number of overall MSHR hits (Count)
board.cache_hierarchy.clusters0.l1d_cache.overallMshrHits::total         6239                       # number of overall MSHR hits (Count)
board.cache_hierarchy.clusters0.l1d_cache.demandMshrMisses::processor.cores0.core.data         8454                       # number of demand (read+write) MSHR misses (Count)
board.cache_hierarchy.clusters0.l1d_cache.demandMshrMisses::total         8454                       # number of demand (read+write) MSHR misses (Count)
board.cache_hierarchy.clusters0.l1d_cache.overallMshrMisses::cache_hierarchy.clusters0.l1d_cache.prefetcher          828                       # number of overall MSHR misses (Count)
board.cache_hierarchy.clusters0.l1d_cache.overallMshrMisses::processor.cores0.core.data         8454                       # number of overall MSHR misses (Count)
board.cache_hierarchy.clusters0.l1d_cache.overallMshrMisses::total         9282                       # number of overall MSHR misses (Count)
board.cache_hierarchy.clusters0.l1d_cache.demandMshrMissLatency::processor.cores0.core.data    109792098                       # number of demand (read+write) MSHR miss ticks (Tick)
board.cache_hierarchy.clusters0.l1d_cache.demandMshrMissLatency::total    109792098                       # number of demand (read+write) MSHR miss ticks (Tick)
board.cache_hierarchy.clusters0.l1d_cache.overallMshrMissLatency::cache_hierarchy.clusters0.l1d_cache.prefetcher      5262873                       # number of overall MSHR miss ticks (Tick)
board.cache_hierarchy.clusters0.l1d_cache.overallMshrMissLatency::processor.cores0.core.data    109792098                       # number of overall MSHR miss ticks (Tick)
board.cache_hierarchy.clusters0.l1d_cache.overallMshrMissLatency::total    115054971                       # number of overall MSHR miss ticks (Tick)
board.cache_hierarchy.clusters0.l1d_cache.demandMshrMissRate::processor.cores0.core.data     0.033616                       # mshr miss ratio for demand accesses (Ratio)
board.cache_hierarchy.clusters0.l1d_cache.demandMshrMissRate::total     0.033616                       # mshr miss ratio for demand accesses (Ratio)
board.cache_hierarchy.clusters0.l1d_cache.overallMshrMissRate::cache_hierarchy.clusters0.l1d_cache.prefetcher          inf                       # mshr miss ratio for overall accesses (Ratio)
board.cache_hierarchy.clusters0.l1d_cache.overallMshrMissRate::processor.cores0.core.data     0.033616                       # mshr miss ratio for overall accesses (Ratio)
board.cache_hierarchy.clusters0.l1d_cache.overallMshrMissRate::total     0.036908                       # mshr miss ratio for overall accesses (Ratio)
board.cache_hierarchy.clusters0.l1d_cache.demandAvgMshrMissLatency::processor.cores0.core.data        12987                       # average overall mshr miss latency ((Tick/Count))
board.cache_hierarchy.clusters0.l1d_cache.demandAvgMshrMissLatency::total        12987                       # average overall mshr miss latency ((Tick/Count))
board.cache_hierarchy.clusters0.l1d_cache.overallAvgMshrMissLatency::cache_hierarchy.clusters0.l1d_cache.prefetcher  6356.126812                       # average overall mshr miss latency ((Tick/Count))
board.cache_hierarchy.clusters0.l1d_cache.overallAvgMshrMissLatency::processor.cores0.core.data        12987                       # average overall mshr miss latency ((Tick/Count))
board.cache_hierarchy.clusters0.l1d_cache.overallAvgMshrMissLatency::total 12395.493536                       # average overall mshr miss latency ((Tick/Count))
board.cache_hierarchy.clusters0.l1d_cache.replacements         2285                       # number of replacements (Count)
board.cache_hierarchy.clusters0.l1d_cache.HardPFReq.mshrMisses::cache_hierarchy.clusters0.l1d_cache.prefetcher          828                       # number of HardPFReq MSHR misses (Count)
board.cache_hierarchy.clusters0.l1d_cache.HardPFReq.mshrMisses::total          828                       # number of HardPFReq MSHR misses (Count)
board.cache_hierarchy.clusters0.l1d_cache.HardPFReq.mshrMissLatency::cache_hierarchy.clusters0.l1d_cache.prefetcher      5262873                       # number of HardPFReq MSHR miss ticks (Tick)
board.cache_hierarchy.clusters0.l1d_cache.HardPFReq.mshrMissLatency::total      5262873                       # number of HardPFReq MSHR miss ticks (Tick)
board.cache_hierarchy.clusters0.l1d_cache.HardPFReq.mshrMissRate::cache_hierarchy.clusters0.l1d_cache.prefetcher          inf                       # mshr miss rate for HardPFReq accesses (Ratio)
board.cache_hierarchy.clusters0.l1d_cache.HardPFReq.mshrMissRate::total          inf                       # mshr miss rate for HardPFReq accesses (Ratio)
board.cache_hierarchy.clusters0.l1d_cache.HardPFReq.avgMshrMissLatency::cache_hierarchy.clusters0.l1d_cache.prefetcher  6356.126812                       # average HardPFReq mshr miss latency ((Tick/Count))
board.cache_hierarchy.clusters0.l1d_cache.HardPFReq.avgMshrMissLatency::total  6356.126812                       # average HardPFReq mshr miss latency ((Tick/Count))
board.cache_hierarchy.clusters0.l1d_cache.LockedRMWReadReq.hits::processor.cores0.core.data            8                       # number of LockedRMWReadReq hits (Count)
board.cache_hierarchy.clusters0.l1d_cache.LockedRMWReadReq.hits::total            8                       # number of LockedRMWReadReq hits (Count)
board.cache_hierarchy.clusters0.l1d_cache.LockedRMWReadReq.misses::processor.cores0.core.data          494                       # number of LockedRMWReadReq misses (Count)
board.cache_hierarchy.clusters0.l1d_cache.LockedRMWReadReq.misses::total          494                       # number of LockedRMWReadReq misses (Count)
board.cache_hierarchy.clusters0.l1d_cache.LockedRMWReadReq.missLatency::processor.cores0.core.data      5359302                       # number of LockedRMWReadReq miss ticks (Tick)
board.cache_hierarchy.clusters0.l1d_cache.LockedRMWReadReq.missLatency::total      5359302                       # number of LockedRMWReadReq miss ticks (Tick)
board.cache_hierarchy.clusters0.l1d_cache.LockedRMWReadReq.accesses::processor.cores0.core.data          502                       # number of LockedRMWReadReq accesses(hits+misses) (Count)
board.cache_hierarchy.clusters0.l1d_cache.LockedRMWReadReq.accesses::total          502                       # number of LockedRMWReadReq accesses(hits+misses) (Count)
board.cache_hierarchy.clusters0.l1d_cache.LockedRMWReadReq.missRate::processor.cores0.core.data     0.984064                       # miss rate for LockedRMWReadReq accesses (Ratio)
board.cache_hierarchy.clusters0.l1d_cache.LockedRMWReadReq.missRate::total     0.984064                       # miss rate for LockedRMWReadReq accesses (Ratio)
board.cache_hierarchy.clusters0.l1d_cache.LockedRMWReadReq.avgMissLatency::processor.cores0.core.data 10848.789474                       # average LockedRMWReadReq miss latency ((Tick/Count))
board.cache_hierarchy.clusters0.l1d_cache.LockedRMWReadReq.avgMissLatency::total 10848.789474                       # average LockedRMWReadReq miss latency ((Tick/Count))
board.cache_hierarchy.clusters0.l1d_cache.LockedRMWReadReq.mshrMisses::processor.cores0.core.data          494                       # number of LockedRMWReadReq MSHR misses (Count)
board.cache_hierarchy.clusters0.l1d_cache.LockedRMWReadReq.mshrMisses::total          494                       # number of LockedRMWReadReq MSHR misses (Count)
board.cache_hierarchy.clusters0.l1d_cache.LockedRMWReadReq.mshrMissLatency::processor.cores0.core.data     11055933                       # number of LockedRMWReadReq MSHR miss ticks (Tick)
board.cache_hierarchy.clusters0.l1d_cache.LockedRMWReadReq.mshrMissLatency::total     11055933                       # number of LockedRMWReadReq MSHR miss ticks (Tick)
board.cache_hierarchy.clusters0.l1d_cache.LockedRMWReadReq.mshrMissRate::processor.cores0.core.data     0.984064                       # mshr miss rate for LockedRMWReadReq accesses (Ratio)
board.cache_hierarchy.clusters0.l1d_cache.LockedRMWReadReq.mshrMissRate::total     0.984064                       # mshr miss rate for LockedRMWReadReq accesses (Ratio)
board.cache_hierarchy.clusters0.l1d_cache.LockedRMWReadReq.avgMshrMissLatency::processor.cores0.core.data 22380.431174                       # average LockedRMWReadReq mshr miss latency ((Tick/Count))
board.cache_hierarchy.clusters0.l1d_cache.LockedRMWReadReq.avgMshrMissLatency::total 22380.431174                       # average LockedRMWReadReq mshr miss latency ((Tick/Count))
board.cache_hierarchy.clusters0.l1d_cache.LockedRMWWriteReq.hits::processor.cores0.core.data          502                       # number of LockedRMWWriteReq hits (Count)
board.cache_hierarchy.clusters0.l1d_cache.LockedRMWWriteReq.hits::total          502                       # number of LockedRMWWriteReq hits (Count)
board.cache_hierarchy.clusters0.l1d_cache.LockedRMWWriteReq.accesses::processor.cores0.core.data          502                       # number of LockedRMWWriteReq accesses(hits+misses) (Count)
board.cache_hierarchy.clusters0.l1d_cache.LockedRMWWriteReq.accesses::total          502                       # number of LockedRMWWriteReq accesses(hits+misses) (Count)
board.cache_hierarchy.clusters0.l1d_cache.ReadReq.hits::processor.cores0.core.data       160339                       # number of ReadReq hits (Count)
board.cache_hierarchy.clusters0.l1d_cache.ReadReq.hits::total       160339                       # number of ReadReq hits (Count)
board.cache_hierarchy.clusters0.l1d_cache.ReadReq.misses::processor.cores0.core.data         1243                       # number of ReadReq misses (Count)
board.cache_hierarchy.clusters0.l1d_cache.ReadReq.misses::total         1243                       # number of ReadReq misses (Count)
board.cache_hierarchy.clusters0.l1d_cache.ReadReq.missLatency::processor.cores0.core.data     10534788                       # number of ReadReq miss ticks (Tick)
board.cache_hierarchy.clusters0.l1d_cache.ReadReq.missLatency::total     10534788                       # number of ReadReq miss ticks (Tick)
board.cache_hierarchy.clusters0.l1d_cache.ReadReq.accesses::processor.cores0.core.data       161582                       # number of ReadReq accesses(hits+misses) (Count)
board.cache_hierarchy.clusters0.l1d_cache.ReadReq.accesses::total       161582                       # number of ReadReq accesses(hits+misses) (Count)
board.cache_hierarchy.clusters0.l1d_cache.ReadReq.missRate::processor.cores0.core.data     0.007693                       # miss rate for ReadReq accesses (Ratio)
board.cache_hierarchy.clusters0.l1d_cache.ReadReq.missRate::total     0.007693                       # miss rate for ReadReq accesses (Ratio)
board.cache_hierarchy.clusters0.l1d_cache.ReadReq.avgMissLatency::processor.cores0.core.data  8475.292035                       # average ReadReq miss latency ((Tick/Count))
board.cache_hierarchy.clusters0.l1d_cache.ReadReq.avgMissLatency::total  8475.292035                       # average ReadReq miss latency ((Tick/Count))
board.cache_hierarchy.clusters0.l1d_cache.ReadReq.mshrMisses::processor.cores0.core.data         1243                       # number of ReadReq MSHR misses (Count)
board.cache_hierarchy.clusters0.l1d_cache.ReadReq.mshrMisses::total         1243                       # number of ReadReq MSHR misses (Count)
board.cache_hierarchy.clusters0.l1d_cache.ReadReq.mshrMissLatency::processor.cores0.core.data     10120869                       # number of ReadReq MSHR miss ticks (Tick)
board.cache_hierarchy.clusters0.l1d_cache.ReadReq.mshrMissLatency::total     10120869                       # number of ReadReq MSHR miss ticks (Tick)
board.cache_hierarchy.clusters0.l1d_cache.ReadReq.mshrMissRate::processor.cores0.core.data     0.007693                       # mshr miss rate for ReadReq accesses (Ratio)
board.cache_hierarchy.clusters0.l1d_cache.ReadReq.mshrMissRate::total     0.007693                       # mshr miss rate for ReadReq accesses (Ratio)
board.cache_hierarchy.clusters0.l1d_cache.ReadReq.avgMshrMissLatency::processor.cores0.core.data  8142.292035                       # average ReadReq mshr miss latency ((Tick/Count))
board.cache_hierarchy.clusters0.l1d_cache.ReadReq.avgMshrMissLatency::total  8142.292035                       # average ReadReq mshr miss latency ((Tick/Count))
board.cache_hierarchy.clusters0.l1d_cache.WriteReq.hits::processor.cores0.core.data        76459                       # number of WriteReq hits (Count)
board.cache_hierarchy.clusters0.l1d_cache.WriteReq.hits::total        76459                       # number of WriteReq hits (Count)
board.cache_hierarchy.clusters0.l1d_cache.WriteReq.misses::processor.cores0.core.data        13450                       # number of WriteReq misses (Count)
board.cache_hierarchy.clusters0.l1d_cache.WriteReq.misses::total        13450                       # number of WriteReq misses (Count)
board.cache_hierarchy.clusters0.l1d_cache.WriteReq.missLatency::processor.cores0.core.data    185580567                       # number of WriteReq miss ticks (Tick)
board.cache_hierarchy.clusters0.l1d_cache.WriteReq.missLatency::total    185580567                       # number of WriteReq miss ticks (Tick)
board.cache_hierarchy.clusters0.l1d_cache.WriteReq.accesses::processor.cores0.core.data        89909                       # number of WriteReq accesses(hits+misses) (Count)
board.cache_hierarchy.clusters0.l1d_cache.WriteReq.accesses::total        89909                       # number of WriteReq accesses(hits+misses) (Count)
board.cache_hierarchy.clusters0.l1d_cache.WriteReq.missRate::processor.cores0.core.data     0.149596                       # miss rate for WriteReq accesses (Ratio)
board.cache_hierarchy.clusters0.l1d_cache.WriteReq.missRate::total     0.149596                       # miss rate for WriteReq accesses (Ratio)
board.cache_hierarchy.clusters0.l1d_cache.WriteReq.avgMissLatency::processor.cores0.core.data 13797.811673                       # average WriteReq miss latency ((Tick/Count))
board.cache_hierarchy.clusters0.l1d_cache.WriteReq.avgMissLatency::total 13797.811673                       # average WriteReq miss latency ((Tick/Count))
board.cache_hierarchy.clusters0.l1d_cache.WriteReq.mshrHits::processor.cores0.core.data         6239                       # number of WriteReq MSHR hits (Count)
board.cache_hierarchy.clusters0.l1d_cache.WriteReq.mshrHits::total         6239                       # number of WriteReq MSHR hits (Count)
board.cache_hierarchy.clusters0.l1d_cache.WriteReq.mshrMisses::processor.cores0.core.data         7211                       # number of WriteReq MSHR misses (Count)
board.cache_hierarchy.clusters0.l1d_cache.WriteReq.mshrMisses::total         7211                       # number of WriteReq MSHR misses (Count)
board.cache_hierarchy.clusters0.l1d_cache.WriteReq.mshrMissLatency::processor.cores0.core.data     99671229                       # number of WriteReq MSHR miss ticks (Tick)
board.cache_hierarchy.clusters0.l1d_cache.WriteReq.mshrMissLatency::total     99671229                       # number of WriteReq MSHR miss ticks (Tick)
board.cache_hierarchy.clusters0.l1d_cache.WriteReq.mshrMissRate::processor.cores0.core.data     0.080203                       # mshr miss rate for WriteReq accesses (Ratio)
board.cache_hierarchy.clusters0.l1d_cache.WriteReq.mshrMissRate::total     0.080203                       # mshr miss rate for WriteReq accesses (Ratio)
board.cache_hierarchy.clusters0.l1d_cache.WriteReq.avgMshrMissLatency::processor.cores0.core.data 13822.109139                       # average WriteReq mshr miss latency ((Tick/Count))
board.cache_hierarchy.clusters0.l1d_cache.WriteReq.avgMshrMissLatency::total 13822.109139                       # average WriteReq mshr miss latency ((Tick/Count))
board.cache_hierarchy.clusters0.l1d_cache.power_state.pwrStateResidencyTicks::UNDEFINED   2060664939                       # Cumulative time (in ticks) in various power states (Tick)
board.cache_hierarchy.clusters0.l1d_cache.prefetcher.demandMshrMisses         8454                       # demands not covered by prefetchs (Count)
board.cache_hierarchy.clusters0.l1d_cache.prefetcher.pfIssued         2850                       # number of hwpf issued (Count)
board.cache_hierarchy.clusters0.l1d_cache.prefetcher.pfUnused          183                       # number of HardPF blocks evicted w/o reference (Count)
board.cache_hierarchy.clusters0.l1d_cache.prefetcher.pfUseful          631                       # number of useful prefetch (Count)
board.cache_hierarchy.clusters0.l1d_cache.prefetcher.pfUsefulButMiss           52                       # number of hit on prefetch but cache block is not in an usable state (Count)
board.cache_hierarchy.clusters0.l1d_cache.prefetcher.accuracy     0.221404                       # accuracy of the prefetcher (Count)
board.cache_hierarchy.clusters0.l1d_cache.prefetcher.coverage     0.069455                       # coverage brought by this prefetcher (Count)
board.cache_hierarchy.clusters0.l1d_cache.prefetcher.pfHitInCache         2021                       # number of prefetches hitting in cache (Count)
board.cache_hierarchy.clusters0.l1d_cache.prefetcher.pfHitInMSHR            1                       # number of prefetches hitting in a MSHR (Count)
board.cache_hierarchy.clusters0.l1d_cache.prefetcher.pfHitInWB            0                       # number of prefetches hit in the Write Buffer (Count)
board.cache_hierarchy.clusters0.l1d_cache.prefetcher.pfLate         2022                       # number of late prefetches (hitting in cache, MSHR or WB) (Count)
board.cache_hierarchy.clusters0.l1d_cache.prefetcher.pfIdentified         2850                       # number of prefetch candidates identified (Count)
board.cache_hierarchy.clusters0.l1d_cache.prefetcher.pfBufferHit            0                       # number of redundant prefetches already in prefetch queue (Count)
board.cache_hierarchy.clusters0.l1d_cache.prefetcher.pfInCache            0                       # number of redundant prefetches already in cache/mshr dropped (Count)
board.cache_hierarchy.clusters0.l1d_cache.prefetcher.pfRemovedDemand            0                       # number of prefetches dropped due to a demand for the same address (Count)
board.cache_hierarchy.clusters0.l1d_cache.prefetcher.pfRemovedFull            0                       # number of prefetches dropped due to prefetch queue size (Count)
board.cache_hierarchy.clusters0.l1d_cache.prefetcher.pfSpanPage         1830                       # number of prefetches that crossed the page (Count)
board.cache_hierarchy.clusters0.l1d_cache.prefetcher.pfUsefulSpanPage          136                       # number of prefetches that is useful and crossed the page (Count)
board.cache_hierarchy.clusters0.l1d_cache.prefetcher.power_state.pwrStateResidencyTicks::UNDEFINED   2060664939                       # Cumulative time (in ticks) in various power states (Tick)
board.cache_hierarchy.clusters0.l1d_cache.tags.tagsInUse   505.114226                       # Average ticks per tags in use ((Tick/Count))
board.cache_hierarchy.clusters0.l1d_cache.tags.totalRefs       103620                       # Total number of references to valid blocks. (Count)
board.cache_hierarchy.clusters0.l1d_cache.tags.sampledRefs         4814                       # Sample count of references to valid blocks. (Count)
board.cache_hierarchy.clusters0.l1d_cache.tags.avgRefs    21.524720                       # Average number of references to valid blocks. ((Count/Count))
board.cache_hierarchy.clusters0.l1d_cache.tags.warmupTick            0                       # The tick when the warmup percentage was hit. (Tick)
board.cache_hierarchy.clusters0.l1d_cache.tags.occupancies::cache_hierarchy.clusters0.l1d_cache.prefetcher   296.260189                       # Average occupied blocks per tick, per requestor ((Count/Tick))
board.cache_hierarchy.clusters0.l1d_cache.tags.occupancies::processor.cores0.core.data   208.854037                       # Average occupied blocks per tick, per requestor ((Count/Tick))
board.cache_hierarchy.clusters0.l1d_cache.tags.avgOccs::cache_hierarchy.clusters0.l1d_cache.prefetcher     0.578633                       # Average percentage of cache occupancy ((Ratio/Tick))
board.cache_hierarchy.clusters0.l1d_cache.tags.avgOccs::processor.cores0.core.data     0.407918                       # Average percentage of cache occupancy ((Ratio/Tick))
board.cache_hierarchy.clusters0.l1d_cache.tags.avgOccs::total     0.986551                       # Average percentage of cache occupancy ((Ratio/Tick))
board.cache_hierarchy.clusters0.l1d_cache.tags.occupanciesTaskId::1022          355                       # Occupied blocks per task id (Count)
board.cache_hierarchy.clusters0.l1d_cache.tags.occupanciesTaskId::1024          148                       # Occupied blocks per task id (Count)
board.cache_hierarchy.clusters0.l1d_cache.tags.ageTaskId_1022::0           28                       # Occupied blocks per task id, per block age (Count)
board.cache_hierarchy.clusters0.l1d_cache.tags.ageTaskId_1022::1          249                       # Occupied blocks per task id, per block age (Count)
board.cache_hierarchy.clusters0.l1d_cache.tags.ageTaskId_1022::2           78                       # Occupied blocks per task id, per block age (Count)
board.cache_hierarchy.clusters0.l1d_cache.tags.ageTaskId_1024::0           18                       # Occupied blocks per task id, per block age (Count)
board.cache_hierarchy.clusters0.l1d_cache.tags.ageTaskId_1024::1           45                       # Occupied blocks per task id, per block age (Count)
board.cache_hierarchy.clusters0.l1d_cache.tags.ageTaskId_1024::2           85                       # Occupied blocks per task id, per block age (Count)
board.cache_hierarchy.clusters0.l1d_cache.tags.ratioOccsTaskId::1022     0.693359                       # Ratio of occupied blocks and all blocks, per task id (Ratio)
board.cache_hierarchy.clusters0.l1d_cache.tags.ratioOccsTaskId::1024     0.289062                       # Ratio of occupied blocks and all blocks, per task id (Ratio)
board.cache_hierarchy.clusters0.l1d_cache.tags.tagAccesses      2024766                       # Number of tag accesses (Count)
board.cache_hierarchy.clusters0.l1d_cache.tags.dataAccesses      2024766                       # Number of data accesses (Count)
board.cache_hierarchy.clusters0.l1d_cache.tags.power_state.pwrStateResidencyTicks::UNDEFINED   2060664939                       # Cumulative time (in ticks) in various power states (Tick)
board.cache_hierarchy.clusters0.l1i_cache.demandHits::processor.cores0.core.inst       167314                       # number of demand (read+write) hits (Count)
board.cache_hierarchy.clusters0.l1i_cache.demandHits::total       167314                       # number of demand (read+write) hits (Count)
board.cache_hierarchy.clusters0.l1i_cache.overallHits::processor.cores0.core.inst       167314                       # number of overall hits (Count)
board.cache_hierarchy.clusters0.l1i_cache.overallHits::total       167314                       # number of overall hits (Count)
board.cache_hierarchy.clusters0.l1i_cache.demandMisses::processor.cores0.core.inst           36                       # number of demand (read+write) misses (Count)
board.cache_hierarchy.clusters0.l1i_cache.demandMisses::total           36                       # number of demand (read+write) misses (Count)
board.cache_hierarchy.clusters0.l1i_cache.overallMisses::processor.cores0.core.inst           36                       # number of overall misses (Count)
board.cache_hierarchy.clusters0.l1i_cache.overallMisses::total           36                       # number of overall misses (Count)
board.cache_hierarchy.clusters0.l1i_cache.demandMissLatency::processor.cores0.core.inst      1284714                       # number of demand (read+write) miss ticks (Tick)
board.cache_hierarchy.clusters0.l1i_cache.demandMissLatency::total      1284714                       # number of demand (read+write) miss ticks (Tick)
board.cache_hierarchy.clusters0.l1i_cache.overallMissLatency::processor.cores0.core.inst      1284714                       # number of overall miss ticks (Tick)
board.cache_hierarchy.clusters0.l1i_cache.overallMissLatency::total      1284714                       # number of overall miss ticks (Tick)
board.cache_hierarchy.clusters0.l1i_cache.demandAccesses::processor.cores0.core.inst       167350                       # number of demand (read+write) accesses (Count)
board.cache_hierarchy.clusters0.l1i_cache.demandAccesses::total       167350                       # number of demand (read+write) accesses (Count)
board.cache_hierarchy.clusters0.l1i_cache.overallAccesses::processor.cores0.core.inst       167350                       # number of overall (read+write) accesses (Count)
board.cache_hierarchy.clusters0.l1i_cache.overallAccesses::total       167350                       # number of overall (read+write) accesses (Count)
board.cache_hierarchy.clusters0.l1i_cache.demandMissRate::processor.cores0.core.inst     0.000215                       # miss rate for demand accesses (Ratio)
board.cache_hierarchy.clusters0.l1i_cache.demandMissRate::total     0.000215                       # miss rate for demand accesses (Ratio)
board.cache_hierarchy.clusters0.l1i_cache.overallMissRate::processor.cores0.core.inst     0.000215                       # miss rate for overall accesses (Ratio)
board.cache_hierarchy.clusters0.l1i_cache.overallMissRate::total     0.000215                       # miss rate for overall accesses (Ratio)
board.cache_hierarchy.clusters0.l1i_cache.demandAvgMissLatency::processor.cores0.core.inst 35686.500000                       # average overall miss latency in ticks ((Tick/Count))
board.cache_hierarchy.clusters0.l1i_cache.demandAvgMissLatency::total 35686.500000                       # average overall miss latency in ticks ((Tick/Count))
board.cache_hierarchy.clusters0.l1i_cache.overallAvgMissLatency::processor.cores0.core.inst 35686.500000                       # average overall miss latency ((Tick/Count))
board.cache_hierarchy.clusters0.l1i_cache.overallAvgMissLatency::total 35686.500000                       # average overall miss latency ((Tick/Count))
board.cache_hierarchy.clusters0.l1i_cache.blockedCycles::no_mshrs            0                       # number of cycles access was blocked (Cycle)
board.cache_hierarchy.clusters0.l1i_cache.blockedCycles::no_targets            0                       # number of cycles access was blocked (Cycle)
board.cache_hierarchy.clusters0.l1i_cache.blockedCauses::no_mshrs            0                       # number of times access was blocked (Count)
board.cache_hierarchy.clusters0.l1i_cache.blockedCauses::no_targets            0                       # number of times access was blocked (Count)
board.cache_hierarchy.clusters0.l1i_cache.avgBlocked::no_mshrs          nan                       # average number of cycles each access was blocked ((Cycle/Count))
board.cache_hierarchy.clusters0.l1i_cache.avgBlocked::no_targets          nan                       # average number of cycles each access was blocked ((Cycle/Count))
board.cache_hierarchy.clusters0.l1i_cache.writebacks::writebacks           37                       # number of writebacks (Count)
board.cache_hierarchy.clusters0.l1i_cache.writebacks::total           37                       # number of writebacks (Count)
board.cache_hierarchy.clusters0.l1i_cache.demandMshrMisses::processor.cores0.core.inst           36                       # number of demand (read+write) MSHR misses (Count)
board.cache_hierarchy.clusters0.l1i_cache.demandMshrMisses::total           36                       # number of demand (read+write) MSHR misses (Count)
board.cache_hierarchy.clusters0.l1i_cache.overallMshrMisses::processor.cores0.core.inst           36                       # number of overall MSHR misses (Count)
board.cache_hierarchy.clusters0.l1i_cache.overallMshrMisses::total           36                       # number of overall MSHR misses (Count)
board.cache_hierarchy.clusters0.l1i_cache.demandMshrMissLatency::processor.cores0.core.inst      1272393                       # number of demand (read+write) MSHR miss ticks (Tick)
board.cache_hierarchy.clusters0.l1i_cache.demandMshrMissLatency::total      1272393                       # number of demand (read+write) MSHR miss ticks (Tick)
board.cache_hierarchy.clusters0.l1i_cache.overallMshrMissLatency::processor.cores0.core.inst      1272393                       # number of overall MSHR miss ticks (Tick)
board.cache_hierarchy.clusters0.l1i_cache.overallMshrMissLatency::total      1272393                       # number of overall MSHR miss ticks (Tick)
board.cache_hierarchy.clusters0.l1i_cache.demandMshrMissRate::processor.cores0.core.inst     0.000215                       # mshr miss ratio for demand accesses (Ratio)
board.cache_hierarchy.clusters0.l1i_cache.demandMshrMissRate::total     0.000215                       # mshr miss ratio for demand accesses (Ratio)
board.cache_hierarchy.clusters0.l1i_cache.overallMshrMissRate::processor.cores0.core.inst     0.000215                       # mshr miss ratio for overall accesses (Ratio)
board.cache_hierarchy.clusters0.l1i_cache.overallMshrMissRate::total     0.000215                       # mshr miss ratio for overall accesses (Ratio)
board.cache_hierarchy.clusters0.l1i_cache.demandAvgMshrMissLatency::processor.cores0.core.inst 35344.250000                       # average overall mshr miss latency ((Tick/Count))
board.cache_hierarchy.clusters0.l1i_cache.demandAvgMshrMissLatency::total 35344.250000                       # average overall mshr miss latency ((Tick/Count))
board.cache_hierarchy.clusters0.l1i_cache.overallAvgMshrMissLatency::processor.cores0.core.inst 35344.250000                       # average overall mshr miss latency ((Tick/Count))
board.cache_hierarchy.clusters0.l1i_cache.overallAvgMshrMissLatency::total 35344.250000                       # average overall mshr miss latency ((Tick/Count))
board.cache_hierarchy.clusters0.l1i_cache.replacements           37                       # number of replacements (Count)
board.cache_hierarchy.clusters0.l1i_cache.ReadReq.hits::processor.cores0.core.inst       167314                       # number of ReadReq hits (Count)
board.cache_hierarchy.clusters0.l1i_cache.ReadReq.hits::total       167314                       # number of ReadReq hits (Count)
board.cache_hierarchy.clusters0.l1i_cache.ReadReq.misses::processor.cores0.core.inst           36                       # number of ReadReq misses (Count)
board.cache_hierarchy.clusters0.l1i_cache.ReadReq.misses::total           36                       # number of ReadReq misses (Count)
board.cache_hierarchy.clusters0.l1i_cache.ReadReq.missLatency::processor.cores0.core.inst      1284714                       # number of ReadReq miss ticks (Tick)
board.cache_hierarchy.clusters0.l1i_cache.ReadReq.missLatency::total      1284714                       # number of ReadReq miss ticks (Tick)
board.cache_hierarchy.clusters0.l1i_cache.ReadReq.accesses::processor.cores0.core.inst       167350                       # number of ReadReq accesses(hits+misses) (Count)
board.cache_hierarchy.clusters0.l1i_cache.ReadReq.accesses::total       167350                       # number of ReadReq accesses(hits+misses) (Count)
board.cache_hierarchy.clusters0.l1i_cache.ReadReq.missRate::processor.cores0.core.inst     0.000215                       # miss rate for ReadReq accesses (Ratio)
board.cache_hierarchy.clusters0.l1i_cache.ReadReq.missRate::total     0.000215                       # miss rate for ReadReq accesses (Ratio)
board.cache_hierarchy.clusters0.l1i_cache.ReadReq.avgMissLatency::processor.cores0.core.inst 35686.500000                       # average ReadReq miss latency ((Tick/Count))
board.cache_hierarchy.clusters0.l1i_cache.ReadReq.avgMissLatency::total 35686.500000                       # average ReadReq miss latency ((Tick/Count))
board.cache_hierarchy.clusters0.l1i_cache.ReadReq.mshrMisses::processor.cores0.core.inst           36                       # number of ReadReq MSHR misses (Count)
board.cache_hierarchy.clusters0.l1i_cache.ReadReq.mshrMisses::total           36                       # number of ReadReq MSHR misses (Count)
board.cache_hierarchy.clusters0.l1i_cache.ReadReq.mshrMissLatency::processor.cores0.core.inst      1272393                       # number of ReadReq MSHR miss ticks (Tick)
board.cache_hierarchy.clusters0.l1i_cache.ReadReq.mshrMissLatency::total      1272393                       # number of ReadReq MSHR miss ticks (Tick)
board.cache_hierarchy.clusters0.l1i_cache.ReadReq.mshrMissRate::processor.cores0.core.inst     0.000215                       # mshr miss rate for ReadReq accesses (Ratio)
board.cache_hierarchy.clusters0.l1i_cache.ReadReq.mshrMissRate::total     0.000215                       # mshr miss rate for ReadReq accesses (Ratio)
board.cache_hierarchy.clusters0.l1i_cache.ReadReq.avgMshrMissLatency::processor.cores0.core.inst 35344.250000                       # average ReadReq mshr miss latency ((Tick/Count))
board.cache_hierarchy.clusters0.l1i_cache.ReadReq.avgMshrMissLatency::total 35344.250000                       # average ReadReq mshr miss latency ((Tick/Count))
board.cache_hierarchy.clusters0.l1i_cache.power_state.pwrStateResidencyTicks::UNDEFINED   2060664939                       # Cumulative time (in ticks) in various power states (Tick)
board.cache_hierarchy.clusters0.l1i_cache.prefetcher.demandMshrMisses           36                       # demands not covered by prefetchs (Count)
board.cache_hierarchy.clusters0.l1i_cache.prefetcher.pfIssued            0                       # number of hwpf issued (Count)
board.cache_hierarchy.clusters0.l1i_cache.prefetcher.pfUseful            0                       # number of useful prefetch (Count)
board.cache_hierarchy.clusters0.l1i_cache.prefetcher.pfUsefulButMiss            0                       # number of hit on prefetch but cache block is not in an usable state (Count)
board.cache_hierarchy.clusters0.l1i_cache.prefetcher.accuracy          nan                       # accuracy of the prefetcher (Count)
board.cache_hierarchy.clusters0.l1i_cache.prefetcher.coverage            0                       # coverage brought by this prefetcher (Count)
board.cache_hierarchy.clusters0.l1i_cache.prefetcher.pfHitInCache            0                       # number of prefetches hitting in cache (Count)
board.cache_hierarchy.clusters0.l1i_cache.prefetcher.pfHitInMSHR            0                       # number of prefetches hitting in a MSHR (Count)
board.cache_hierarchy.clusters0.l1i_cache.prefetcher.pfHitInWB            0                       # number of prefetches hit in the Write Buffer (Count)
board.cache_hierarchy.clusters0.l1i_cache.prefetcher.pfLate            0                       # number of late prefetches (hitting in cache, MSHR or WB) (Count)
board.cache_hierarchy.clusters0.l1i_cache.prefetcher.pfIdentified            0                       # number of prefetch candidates identified (Count)
board.cache_hierarchy.clusters0.l1i_cache.prefetcher.pfBufferHit            0                       # number of redundant prefetches already in prefetch queue (Count)
board.cache_hierarchy.clusters0.l1i_cache.prefetcher.pfInCache            0                       # number of redundant prefetches already in cache/mshr dropped (Count)
board.cache_hierarchy.clusters0.l1i_cache.prefetcher.pfRemovedDemand            0                       # number of prefetches dropped due to a demand for the same address (Count)
board.cache_hierarchy.clusters0.l1i_cache.prefetcher.pfRemovedFull            0                       # number of prefetches dropped due to prefetch queue size (Count)
board.cache_hierarchy.clusters0.l1i_cache.prefetcher.pfSpanPage            0                       # number of prefetches that crossed the page (Count)
board.cache_hierarchy.clusters0.l1i_cache.prefetcher.pfUsefulSpanPage            0                       # number of prefetches that is useful and crossed the page (Count)
board.cache_hierarchy.clusters0.l1i_cache.prefetcher.power_state.pwrStateResidencyTicks::UNDEFINED   2060664939                       # Cumulative time (in ticks) in various power states (Tick)
board.cache_hierarchy.clusters0.l1i_cache.tags.tagsInUse          512                       # Average ticks per tags in use ((Tick/Count))
board.cache_hierarchy.clusters0.l1i_cache.tags.totalRefs         4248                       # Total number of references to valid blocks. (Count)
board.cache_hierarchy.clusters0.l1i_cache.tags.sampledRefs           37                       # Sample count of references to valid blocks. (Count)
board.cache_hierarchy.clusters0.l1i_cache.tags.avgRefs   114.810811                       # Average number of references to valid blocks. ((Count/Count))
board.cache_hierarchy.clusters0.l1i_cache.tags.warmupTick            0                       # The tick when the warmup percentage was hit. (Tick)
board.cache_hierarchy.clusters0.l1i_cache.tags.occupancies::processor.cores0.core.inst          512                       # Average occupied blocks per tick, per requestor ((Count/Tick))
board.cache_hierarchy.clusters0.l1i_cache.tags.avgOccs::processor.cores0.core.inst            1                       # Average percentage of cache occupancy ((Ratio/Tick))
board.cache_hierarchy.clusters0.l1i_cache.tags.avgOccs::total            1                       # Average percentage of cache occupancy ((Ratio/Tick))
board.cache_hierarchy.clusters0.l1i_cache.tags.occupanciesTaskId::1024          512                       # Occupied blocks per task id (Count)
board.cache_hierarchy.clusters0.l1i_cache.tags.ageTaskId_1024::2          114                       # Occupied blocks per task id, per block age (Count)
board.cache_hierarchy.clusters0.l1i_cache.tags.ageTaskId_1024::3          398                       # Occupied blocks per task id, per block age (Count)
board.cache_hierarchy.clusters0.l1i_cache.tags.ratioOccsTaskId::1024            1                       # Ratio of occupied blocks and all blocks, per task id (Ratio)
board.cache_hierarchy.clusters0.l1i_cache.tags.tagAccesses      1338837                       # Number of tag accesses (Count)
board.cache_hierarchy.clusters0.l1i_cache.tags.dataAccesses      1338837                       # Number of data accesses (Count)
board.cache_hierarchy.clusters0.l1i_cache.tags.power_state.pwrStateResidencyTicks::UNDEFINED   2060664939                       # Cumulative time (in ticks) in various power states (Tick)
board.cache_hierarchy.clusters0.l2_bus.transDist::ReadResp        15675                       # Transaction distribution (Count)
board.cache_hierarchy.clusters0.l2_bus.transDist::ReadRespWithInvalidate           95                       # Transaction distribution (Count)
board.cache_hierarchy.clusters0.l2_bus.transDist::WritebackDirty         1414                       # Transaction distribution (Count)
board.cache_hierarchy.clusters0.l2_bus.transDist::WritebackClean         1155                       # Transaction distribution (Count)
board.cache_hierarchy.clusters0.l2_bus.transDist::CleanEvict          984                       # Transaction distribution (Count)
board.cache_hierarchy.clusters0.l2_bus.transDist::HardPFReq         1359                       # Transaction distribution (Count)
board.cache_hierarchy.clusters0.l2_bus.transDist::UpgradeReq         6700                       # Transaction distribution (Count)
board.cache_hierarchy.clusters0.l2_bus.transDist::UpgradeResp         6506                       # Transaction distribution (Count)
board.cache_hierarchy.clusters0.l2_bus.transDist::ReadExReq         3781                       # Transaction distribution (Count)
board.cache_hierarchy.clusters0.l2_bus.transDist::ReadExResp         3555                       # Transaction distribution (Count)
board.cache_hierarchy.clusters0.l2_bus.transDist::ReadSharedReq        18883                       # Transaction distribution (Count)
board.cache_hierarchy.clusters0.l2_bus.pktCount_board.cache_hierarchy.clusters0.l1d_cache.mem_side_port::board.cache_hierarchy.clusters0.l2_cache.cpu_side_port        37855                       # Packet count per connected requestor and responder (Count)
board.cache_hierarchy.clusters0.l2_bus.pktCount_board.cache_hierarchy.clusters0.l1i_cache.mem_side_port::board.cache_hierarchy.clusters0.l2_cache.cpu_side_port          110                       # Packet count per connected requestor and responder (Count)
board.cache_hierarchy.clusters0.l2_bus.pktCount::total        37965                       # Packet count per connected requestor and responder (Count)
board.cache_hierarchy.clusters0.l2_bus.pktSize_board.cache_hierarchy.clusters0.l1d_cache.mem_side_port::board.cache_hierarchy.clusters0.l2_cache.cpu_side_port      1380672                       # Cumulative packet size per connected requestor and responder (Byte)
board.cache_hierarchy.clusters0.l2_bus.pktSize_board.cache_hierarchy.clusters0.l1i_cache.mem_side_port::board.cache_hierarchy.clusters0.l2_cache.cpu_side_port         4736                       # Cumulative packet size per connected requestor and responder (Byte)
board.cache_hierarchy.clusters0.l2_bus.pktSize::total      1385408                       # Cumulative packet size per connected requestor and responder (Byte)
board.cache_hierarchy.clusters0.l2_bus.snoops        38160                       # Total snoops (Count)
board.cache_hierarchy.clusters0.l2_bus.snoopTraffic       942656                       # Total snoop traffic (Byte)
board.cache_hierarchy.clusters0.l2_bus.snoopFanout::samples        31954                       # Request fanout histogram (Count)
board.cache_hierarchy.clusters0.l2_bus.snoopFanout::mean     0.595356                       # Request fanout histogram (Count)
board.cache_hierarchy.clusters0.l2_bus.snoopFanout::stdev     0.491277                       # Request fanout histogram (Count)
board.cache_hierarchy.clusters0.l2_bus.snoopFanout::underflows            0      0.00%      0.00% # Request fanout histogram (Count)
board.cache_hierarchy.clusters0.l2_bus.snoopFanout::0        12937     40.49%     40.49% # Request fanout histogram (Count)
board.cache_hierarchy.clusters0.l2_bus.snoopFanout::1        19010     59.49%     99.98% # Request fanout histogram (Count)
board.cache_hierarchy.clusters0.l2_bus.snoopFanout::2            7      0.02%    100.00% # Request fanout histogram (Count)
board.cache_hierarchy.clusters0.l2_bus.snoopFanout::3            0      0.00%    100.00% # Request fanout histogram (Count)
board.cache_hierarchy.clusters0.l2_bus.snoopFanout::4            0      0.00%    100.00% # Request fanout histogram (Count)
board.cache_hierarchy.clusters0.l2_bus.snoopFanout::overflows            0      0.00%    100.00% # Request fanout histogram (Count)
board.cache_hierarchy.clusters0.l2_bus.snoopFanout::min_value            0                       # Request fanout histogram (Count)
board.cache_hierarchy.clusters0.l2_bus.snoopFanout::max_value            2                       # Request fanout histogram (Count)
board.cache_hierarchy.clusters0.l2_bus.snoopFanout::total        31954                       # Request fanout histogram (Count)
board.cache_hierarchy.clusters0.l2_bus.power_state.pwrStateResidencyTicks::UNDEFINED   2060664939                       # Cumulative time (in ticks) in various power states (Tick)
board.cache_hierarchy.clusters0.l2_bus.reqLayer0.occupancy      5777320                       # Layer occupancy (ticks) (Tick)
board.cache_hierarchy.clusters0.l2_bus.reqLayer0.utilization          0.0                       # Layer utilization (Ratio)
board.cache_hierarchy.clusters0.l2_bus.respLayer0.occupancy      6456204                       # Layer occupancy (ticks) (Tick)
board.cache_hierarchy.clusters0.l2_bus.respLayer0.utilization          0.0                       # Layer utilization (Ratio)
board.cache_hierarchy.clusters0.l2_bus.respLayer1.occupancy        36963                       # Layer occupancy (ticks) (Tick)
board.cache_hierarchy.clusters0.l2_bus.respLayer1.utilization          0.0                       # Layer utilization (Ratio)
board.cache_hierarchy.clusters0.l2_bus.snoopLayer0.occupancy     14979982                       # Layer occupancy (ticks) (Tick)
board.cache_hierarchy.clusters0.l2_bus.snoopLayer0.utilization          0.0                       # Layer utilization (Ratio)
board.cache_hierarchy.clusters0.l2_bus.snoop_filter.totRequests        12134                       # Total number of requests made to the snoop filter. (Count)
board.cache_hierarchy.clusters0.l2_bus.snoop_filter.hitSingleRequests         7314                       # Number of requests hitting in the snoop filter with a single holder of the requested data. (Count)
board.cache_hierarchy.clusters0.l2_bus.snoop_filter.hitMultiRequests            1                       # Number of requests hitting in the snoop filter with multiple (>1) holders of the requested data. (Count)
board.cache_hierarchy.clusters0.l2_bus.snoop_filter.totSnoops        19014                       # Total number of snoops made to the snoop filter. (Count)
board.cache_hierarchy.clusters0.l2_bus.snoop_filter.hitSingleSnoops        19007                       # Number of snoops hitting in the snoop filter with a single holder of the requested data. (Count)
board.cache_hierarchy.clusters0.l2_bus.snoop_filter.hitMultiSnoops            7                       # Number of snoops hitting in the snoop filter with multiple (>1) holders of the requested data. (Count)
board.cache_hierarchy.clusters0.l2_cache.demandHits::cache_hierarchy.clusters0.l1d_cache.prefetcher          600                       # number of demand (read+write) hits (Count)
board.cache_hierarchy.clusters0.l2_cache.demandHits::processor.cores0.core.inst           15                       # number of demand (read+write) hits (Count)
board.cache_hierarchy.clusters0.l2_cache.demandHits::processor.cores0.core.data          417                       # number of demand (read+write) hits (Count)
board.cache_hierarchy.clusters0.l2_cache.demandHits::total         1032                       # number of demand (read+write) hits (Count)
board.cache_hierarchy.clusters0.l2_cache.overallHits::cache_hierarchy.clusters0.l1d_cache.prefetcher          600                       # number of overall hits (Count)
board.cache_hierarchy.clusters0.l2_cache.overallHits::processor.cores0.core.inst           15                       # number of overall hits (Count)
board.cache_hierarchy.clusters0.l2_cache.overallHits::processor.cores0.core.data          417                       # number of overall hits (Count)
board.cache_hierarchy.clusters0.l2_cache.overallHits::total         1032                       # number of overall hits (Count)
board.cache_hierarchy.clusters0.l2_cache.demandMisses::cache_hierarchy.clusters0.l1d_cache.prefetcher          228                       # number of demand (read+write) misses (Count)
board.cache_hierarchy.clusters0.l2_cache.demandMisses::processor.cores0.core.inst           21                       # number of demand (read+write) misses (Count)
board.cache_hierarchy.clusters0.l2_cache.demandMisses::processor.cores0.core.data         3541                       # number of demand (read+write) misses (Count)
board.cache_hierarchy.clusters0.l2_cache.demandMisses::total         3790                       # number of demand (read+write) misses (Count)
board.cache_hierarchy.clusters0.l2_cache.overallMisses::cache_hierarchy.clusters0.l1d_cache.prefetcher          228                       # number of overall misses (Count)
board.cache_hierarchy.clusters0.l2_cache.overallMisses::processor.cores0.core.inst           21                       # number of overall misses (Count)
board.cache_hierarchy.clusters0.l2_cache.overallMisses::processor.cores0.core.data         3541                       # number of overall misses (Count)
board.cache_hierarchy.clusters0.l2_cache.overallMisses::total         3790                       # number of overall misses (Count)
board.cache_hierarchy.clusters0.l2_cache.demandMissLatency::cache_hierarchy.clusters0.l1d_cache.prefetcher      2201454                       # number of demand (read+write) miss ticks (Tick)
board.cache_hierarchy.clusters0.l2_cache.demandMissLatency::processor.cores0.core.inst      1192140                       # number of demand (read+write) miss ticks (Tick)
board.cache_hierarchy.clusters0.l2_cache.demandMissLatency::processor.cores0.core.data     36000590                       # number of demand (read+write) miss ticks (Tick)
board.cache_hierarchy.clusters0.l2_cache.demandMissLatency::total     39394184                       # number of demand (read+write) miss ticks (Tick)
board.cache_hierarchy.clusters0.l2_cache.overallMissLatency::cache_hierarchy.clusters0.l1d_cache.prefetcher      2201454                       # number of overall miss ticks (Tick)
board.cache_hierarchy.clusters0.l2_cache.overallMissLatency::processor.cores0.core.inst      1192140                       # number of overall miss ticks (Tick)
board.cache_hierarchy.clusters0.l2_cache.overallMissLatency::processor.cores0.core.data     36000590                       # number of overall miss ticks (Tick)
board.cache_hierarchy.clusters0.l2_cache.overallMissLatency::total     39394184                       # number of overall miss ticks (Tick)
board.cache_hierarchy.clusters0.l2_cache.demandAccesses::cache_hierarchy.clusters0.l1d_cache.prefetcher          828                       # number of demand (read+write) accesses (Count)
board.cache_hierarchy.clusters0.l2_cache.demandAccesses::processor.cores0.core.inst           36                       # number of demand (read+write) accesses (Count)
board.cache_hierarchy.clusters0.l2_cache.demandAccesses::processor.cores0.core.data         3958                       # number of demand (read+write) accesses (Count)
board.cache_hierarchy.clusters0.l2_cache.demandAccesses::total         4822                       # number of demand (read+write) accesses (Count)
board.cache_hierarchy.clusters0.l2_cache.overallAccesses::cache_hierarchy.clusters0.l1d_cache.prefetcher          828                       # number of overall (read+write) accesses (Count)
board.cache_hierarchy.clusters0.l2_cache.overallAccesses::processor.cores0.core.inst           36                       # number of overall (read+write) accesses (Count)
board.cache_hierarchy.clusters0.l2_cache.overallAccesses::processor.cores0.core.data         3958                       # number of overall (read+write) accesses (Count)
board.cache_hierarchy.clusters0.l2_cache.overallAccesses::total         4822                       # number of overall (read+write) accesses (Count)
board.cache_hierarchy.clusters0.l2_cache.demandMissRate::cache_hierarchy.clusters0.l1d_cache.prefetcher     0.275362                       # miss rate for demand accesses (Ratio)
board.cache_hierarchy.clusters0.l2_cache.demandMissRate::processor.cores0.core.inst     0.583333                       # miss rate for demand accesses (Ratio)
board.cache_hierarchy.clusters0.l2_cache.demandMissRate::processor.cores0.core.data     0.894644                       # miss rate for demand accesses (Ratio)
board.cache_hierarchy.clusters0.l2_cache.demandMissRate::total     0.785981                       # miss rate for demand accesses (Ratio)
board.cache_hierarchy.clusters0.l2_cache.overallMissRate::cache_hierarchy.clusters0.l1d_cache.prefetcher     0.275362                       # miss rate for overall accesses (Ratio)
board.cache_hierarchy.clusters0.l2_cache.overallMissRate::processor.cores0.core.inst     0.583333                       # miss rate for overall accesses (Ratio)
board.cache_hierarchy.clusters0.l2_cache.overallMissRate::processor.cores0.core.data     0.894644                       # miss rate for overall accesses (Ratio)
board.cache_hierarchy.clusters0.l2_cache.overallMissRate::total     0.785981                       # miss rate for overall accesses (Ratio)
board.cache_hierarchy.clusters0.l2_cache.demandAvgMissLatency::cache_hierarchy.clusters0.l1d_cache.prefetcher  9655.500000                       # average overall miss latency in ticks ((Tick/Count))
board.cache_hierarchy.clusters0.l2_cache.demandAvgMissLatency::processor.cores0.core.inst 56768.571429                       # average overall miss latency in ticks ((Tick/Count))
board.cache_hierarchy.clusters0.l2_cache.demandAvgMissLatency::processor.cores0.core.data 10166.786219                       # average overall miss latency in ticks ((Tick/Count))
board.cache_hierarchy.clusters0.l2_cache.demandAvgMissLatency::total 10394.243799                       # average overall miss latency in ticks ((Tick/Count))
board.cache_hierarchy.clusters0.l2_cache.overallAvgMissLatency::cache_hierarchy.clusters0.l1d_cache.prefetcher  9655.500000                       # average overall miss latency ((Tick/Count))
board.cache_hierarchy.clusters0.l2_cache.overallAvgMissLatency::processor.cores0.core.inst 56768.571429                       # average overall miss latency ((Tick/Count))
board.cache_hierarchy.clusters0.l2_cache.overallAvgMissLatency::processor.cores0.core.data 10166.786219                       # average overall miss latency ((Tick/Count))
board.cache_hierarchy.clusters0.l2_cache.overallAvgMissLatency::total 10394.243799                       # average overall miss latency ((Tick/Count))
board.cache_hierarchy.clusters0.l2_cache.blockedCycles::no_mshrs            0                       # number of cycles access was blocked (Cycle)
board.cache_hierarchy.clusters0.l2_cache.blockedCycles::no_targets            0                       # number of cycles access was blocked (Cycle)
board.cache_hierarchy.clusters0.l2_cache.blockedCauses::no_mshrs            0                       # number of times access was blocked (Count)
board.cache_hierarchy.clusters0.l2_cache.blockedCauses::no_targets            0                       # number of times access was blocked (Count)
board.cache_hierarchy.clusters0.l2_cache.avgBlocked::no_mshrs          nan                       # average number of cycles each access was blocked ((Cycle/Count))
board.cache_hierarchy.clusters0.l2_cache.avgBlocked::no_targets          nan                       # average number of cycles each access was blocked ((Cycle/Count))
board.cache_hierarchy.clusters0.l2_cache.writebacks::writebacks          247                       # number of writebacks (Count)
board.cache_hierarchy.clusters0.l2_cache.writebacks::total          247                       # number of writebacks (Count)
board.cache_hierarchy.clusters0.l2_cache.demandMshrHits::cache_hierarchy.clusters0.l1d_cache.prefetcher          174                       # number of demand (read+write) MSHR hits (Count)
board.cache_hierarchy.clusters0.l2_cache.demandMshrHits::total          174                       # number of demand (read+write) MSHR hits (Count)
board.cache_hierarchy.clusters0.l2_cache.overallMshrHits::cache_hierarchy.clusters0.l1d_cache.prefetcher          174                       # number of overall MSHR hits (Count)
board.cache_hierarchy.clusters0.l2_cache.overallMshrHits::total          174                       # number of overall MSHR hits (Count)
board.cache_hierarchy.clusters0.l2_cache.demandMshrMisses::cache_hierarchy.clusters0.l1d_cache.prefetcher           54                       # number of demand (read+write) MSHR misses (Count)
board.cache_hierarchy.clusters0.l2_cache.demandMshrMisses::processor.cores0.core.inst           21                       # number of demand (read+write) MSHR misses (Count)
board.cache_hierarchy.clusters0.l2_cache.demandMshrMisses::processor.cores0.core.data         3541                       # number of demand (read+write) MSHR misses (Count)
board.cache_hierarchy.clusters0.l2_cache.demandMshrMisses::total         3616                       # number of demand (read+write) MSHR misses (Count)
board.cache_hierarchy.clusters0.l2_cache.overallMshrMisses::cache_hierarchy.clusters0.l1d_cache.prefetcher           54                       # number of overall MSHR misses (Count)
board.cache_hierarchy.clusters0.l2_cache.overallMshrMisses::cache_hierarchy.clusters0.l2_cache.prefetcher          931                       # number of overall MSHR misses (Count)
board.cache_hierarchy.clusters0.l2_cache.overallMshrMisses::processor.cores0.core.inst           21                       # number of overall MSHR misses (Count)
board.cache_hierarchy.clusters0.l2_cache.overallMshrMisses::processor.cores0.core.data         3541                       # number of overall MSHR misses (Count)
board.cache_hierarchy.clusters0.l2_cache.overallMshrMisses::total         4547                       # number of overall MSHR misses (Count)
board.cache_hierarchy.clusters0.l2_cache.demandMshrMissLatency::cache_hierarchy.clusters0.l1d_cache.prefetcher       842154                       # number of demand (read+write) MSHR miss ticks (Tick)
board.cache_hierarchy.clusters0.l2_cache.demandMshrMissLatency::processor.cores0.core.inst      1184814                       # number of demand (read+write) MSHR miss ticks (Tick)
board.cache_hierarchy.clusters0.l2_cache.demandMshrMissLatency::processor.cores0.core.data     34814777                       # number of demand (read+write) MSHR miss ticks (Tick)
board.cache_hierarchy.clusters0.l2_cache.demandMshrMissLatency::total     36841745                       # number of demand (read+write) MSHR miss ticks (Tick)
board.cache_hierarchy.clusters0.l2_cache.overallMshrMissLatency::cache_hierarchy.clusters0.l1d_cache.prefetcher       842154                       # number of overall MSHR miss ticks (Tick)
board.cache_hierarchy.clusters0.l2_cache.overallMshrMissLatency::cache_hierarchy.clusters0.l2_cache.prefetcher      9088672                       # number of overall MSHR miss ticks (Tick)
board.cache_hierarchy.clusters0.l2_cache.overallMshrMissLatency::processor.cores0.core.inst      1184814                       # number of overall MSHR miss ticks (Tick)
board.cache_hierarchy.clusters0.l2_cache.overallMshrMissLatency::processor.cores0.core.data     34814777                       # number of overall MSHR miss ticks (Tick)
board.cache_hierarchy.clusters0.l2_cache.overallMshrMissLatency::total     45930417                       # number of overall MSHR miss ticks (Tick)
board.cache_hierarchy.clusters0.l2_cache.demandMshrMissRate::cache_hierarchy.clusters0.l1d_cache.prefetcher     0.065217                       # mshr miss ratio for demand accesses (Ratio)
board.cache_hierarchy.clusters0.l2_cache.demandMshrMissRate::processor.cores0.core.inst     0.583333                       # mshr miss ratio for demand accesses (Ratio)
board.cache_hierarchy.clusters0.l2_cache.demandMshrMissRate::processor.cores0.core.data     0.894644                       # mshr miss ratio for demand accesses (Ratio)
board.cache_hierarchy.clusters0.l2_cache.demandMshrMissRate::total     0.749896                       # mshr miss ratio for demand accesses (Ratio)
board.cache_hierarchy.clusters0.l2_cache.overallMshrMissRate::cache_hierarchy.clusters0.l1d_cache.prefetcher     0.065217                       # mshr miss ratio for overall accesses (Ratio)
board.cache_hierarchy.clusters0.l2_cache.overallMshrMissRate::cache_hierarchy.clusters0.l2_cache.prefetcher          inf                       # mshr miss ratio for overall accesses (Ratio)
board.cache_hierarchy.clusters0.l2_cache.overallMshrMissRate::processor.cores0.core.inst     0.583333                       # mshr miss ratio for overall accesses (Ratio)
board.cache_hierarchy.clusters0.l2_cache.overallMshrMissRate::processor.cores0.core.data     0.894644                       # mshr miss ratio for overall accesses (Ratio)
board.cache_hierarchy.clusters0.l2_cache.overallMshrMissRate::total     0.942970                       # mshr miss ratio for overall accesses (Ratio)
board.cache_hierarchy.clusters0.l2_cache.demandAvgMshrMissLatency::cache_hierarchy.clusters0.l1d_cache.prefetcher 15595.444444                       # average overall mshr miss latency ((Tick/Count))
board.cache_hierarchy.clusters0.l2_cache.demandAvgMshrMissLatency::processor.cores0.core.inst 56419.714286                       # average overall mshr miss latency ((Tick/Count))
board.cache_hierarchy.clusters0.l2_cache.demandAvgMshrMissLatency::processor.cores0.core.data  9831.905394                       # average overall mshr miss latency ((Tick/Count))
board.cache_hierarchy.clusters0.l2_cache.demandAvgMshrMissLatency::total 10188.535675                       # average overall mshr miss latency ((Tick/Count))
board.cache_hierarchy.clusters0.l2_cache.overallAvgMshrMissLatency::cache_hierarchy.clusters0.l1d_cache.prefetcher 15595.444444                       # average overall mshr miss latency ((Tick/Count))
board.cache_hierarchy.clusters0.l2_cache.overallAvgMshrMissLatency::cache_hierarchy.clusters0.l2_cache.prefetcher  9762.268528                       # average overall mshr miss latency ((Tick/Count))
board.cache_hierarchy.clusters0.l2_cache.overallAvgMshrMissLatency::processor.cores0.core.inst 56419.714286                       # average overall mshr miss latency ((Tick/Count))
board.cache_hierarchy.clusters0.l2_cache.overallAvgMshrMissLatency::processor.cores0.core.data  9831.905394                       # average overall mshr miss latency ((Tick/Count))
board.cache_hierarchy.clusters0.l2_cache.overallAvgMshrMissLatency::total 10101.257313                       # average overall mshr miss latency ((Tick/Count))
board.cache_hierarchy.clusters0.l2_cache.replacements         1231                       # number of replacements (Count)
board.cache_hierarchy.clusters0.l2_cache.HardPFReq.mshrMisses::cache_hierarchy.clusters0.l2_cache.prefetcher          931                       # number of HardPFReq MSHR misses (Count)
board.cache_hierarchy.clusters0.l2_cache.HardPFReq.mshrMisses::total          931                       # number of HardPFReq MSHR misses (Count)
board.cache_hierarchy.clusters0.l2_cache.HardPFReq.mshrMissLatency::cache_hierarchy.clusters0.l2_cache.prefetcher      9088672                       # number of HardPFReq MSHR miss ticks (Tick)
board.cache_hierarchy.clusters0.l2_cache.HardPFReq.mshrMissLatency::total      9088672                       # number of HardPFReq MSHR miss ticks (Tick)
board.cache_hierarchy.clusters0.l2_cache.HardPFReq.mshrMissRate::cache_hierarchy.clusters0.l2_cache.prefetcher          inf                       # mshr miss rate for HardPFReq accesses (Ratio)
board.cache_hierarchy.clusters0.l2_cache.HardPFReq.mshrMissRate::total          inf                       # mshr miss rate for HardPFReq accesses (Ratio)
board.cache_hierarchy.clusters0.l2_cache.HardPFReq.avgMshrMissLatency::cache_hierarchy.clusters0.l2_cache.prefetcher  9762.268528                       # average HardPFReq mshr miss latency ((Tick/Count))
board.cache_hierarchy.clusters0.l2_cache.HardPFReq.avgMshrMissLatency::total  9762.268528                       # average HardPFReq mshr miss latency ((Tick/Count))
board.cache_hierarchy.clusters0.l2_cache.ReadExReq.hits::processor.cores0.core.data           43                       # number of ReadExReq hits (Count)
board.cache_hierarchy.clusters0.l2_cache.ReadExReq.hits::total           43                       # number of ReadExReq hits (Count)
board.cache_hierarchy.clusters0.l2_cache.ReadExReq.misses::processor.cores0.core.data         2672                       # number of ReadExReq misses (Count)
board.cache_hierarchy.clusters0.l2_cache.ReadExReq.misses::total         2672                       # number of ReadExReq misses (Count)
board.cache_hierarchy.clusters0.l2_cache.ReadExReq.missLatency::processor.cores0.core.data     28078855                       # number of ReadExReq miss ticks (Tick)
board.cache_hierarchy.clusters0.l2_cache.ReadExReq.missLatency::total     28078855                       # number of ReadExReq miss ticks (Tick)
board.cache_hierarchy.clusters0.l2_cache.ReadExReq.accesses::processor.cores0.core.data         2715                       # number of ReadExReq accesses(hits+misses) (Count)
board.cache_hierarchy.clusters0.l2_cache.ReadExReq.accesses::total         2715                       # number of ReadExReq accesses(hits+misses) (Count)
board.cache_hierarchy.clusters0.l2_cache.ReadExReq.missRate::processor.cores0.core.data     0.984162                       # miss rate for ReadExReq accesses (Ratio)
board.cache_hierarchy.clusters0.l2_cache.ReadExReq.missRate::total     0.984162                       # miss rate for ReadExReq accesses (Ratio)
board.cache_hierarchy.clusters0.l2_cache.ReadExReq.avgMissLatency::processor.cores0.core.data 10508.553518                       # average ReadExReq miss latency ((Tick/Count))
board.cache_hierarchy.clusters0.l2_cache.ReadExReq.avgMissLatency::total 10508.553518                       # average ReadExReq miss latency ((Tick/Count))
board.cache_hierarchy.clusters0.l2_cache.ReadExReq.mshrMisses::processor.cores0.core.data         2672                       # number of ReadExReq MSHR misses (Count)
board.cache_hierarchy.clusters0.l2_cache.ReadExReq.mshrMisses::total         2672                       # number of ReadExReq MSHR misses (Count)
board.cache_hierarchy.clusters0.l2_cache.ReadExReq.mshrMissLatency::processor.cores0.core.data     27182419                       # number of ReadExReq MSHR miss ticks (Tick)
board.cache_hierarchy.clusters0.l2_cache.ReadExReq.mshrMissLatency::total     27182419                       # number of ReadExReq MSHR miss ticks (Tick)
board.cache_hierarchy.clusters0.l2_cache.ReadExReq.mshrMissRate::processor.cores0.core.data     0.984162                       # mshr miss rate for ReadExReq accesses (Ratio)
board.cache_hierarchy.clusters0.l2_cache.ReadExReq.mshrMissRate::total     0.984162                       # mshr miss rate for ReadExReq accesses (Ratio)
board.cache_hierarchy.clusters0.l2_cache.ReadExReq.avgMshrMissLatency::processor.cores0.core.data 10173.061003                       # average ReadExReq mshr miss latency ((Tick/Count))
board.cache_hierarchy.clusters0.l2_cache.ReadExReq.avgMshrMissLatency::total 10173.061003                       # average ReadExReq mshr miss latency ((Tick/Count))
board.cache_hierarchy.clusters0.l2_cache.ReadSharedReq.hits::cache_hierarchy.clusters0.l1d_cache.prefetcher          600                       # number of ReadSharedReq hits (Count)
board.cache_hierarchy.clusters0.l2_cache.ReadSharedReq.hits::processor.cores0.core.inst           15                       # number of ReadSharedReq hits (Count)
board.cache_hierarchy.clusters0.l2_cache.ReadSharedReq.hits::processor.cores0.core.data          374                       # number of ReadSharedReq hits (Count)
board.cache_hierarchy.clusters0.l2_cache.ReadSharedReq.hits::total          989                       # number of ReadSharedReq hits (Count)
board.cache_hierarchy.clusters0.l2_cache.ReadSharedReq.misses::cache_hierarchy.clusters0.l1d_cache.prefetcher          228                       # number of ReadSharedReq misses (Count)
board.cache_hierarchy.clusters0.l2_cache.ReadSharedReq.misses::processor.cores0.core.inst           21                       # number of ReadSharedReq misses (Count)
board.cache_hierarchy.clusters0.l2_cache.ReadSharedReq.misses::processor.cores0.core.data          869                       # number of ReadSharedReq misses (Count)
board.cache_hierarchy.clusters0.l2_cache.ReadSharedReq.misses::total         1118                       # number of ReadSharedReq misses (Count)
board.cache_hierarchy.clusters0.l2_cache.ReadSharedReq.missLatency::cache_hierarchy.clusters0.l1d_cache.prefetcher      2201454                       # number of ReadSharedReq miss ticks (Tick)
board.cache_hierarchy.clusters0.l2_cache.ReadSharedReq.missLatency::processor.cores0.core.inst      1192140                       # number of ReadSharedReq miss ticks (Tick)
[...]
board.processor.cores7.core.commitStats0.cpi     2.975904                       # CPI: cycles per instruction (thread level) ((Cycle/Count))
board.processor.cores7.core.commitStats0.ipc     0.336032                       # IPC: instructions per cycle (thread level) ((Count/Cycle))
board.processor.cores7.core.commitStats0.numMemRefs            0                       # Number of memory references committed (Count)
board.processor.cores7.core.commitStats0.numFpInsts            0                       # Number of float instructions (Count)
board.processor.cores7.core.commitStats0.numIntInsts            0                       # Number of integer instructions (Count)
board.processor.cores7.core.commitStats0.numLoadInsts            0                       # Number of load instructions (Count)
board.processor.cores7.core.commitStats0.numStoreInsts            0                       # Number of store instructions (Count)
board.processor.cores7.core.commitStats0.numVecInsts            0                       # Number of vector instructions (Count)
board.processor.cores7.core.commitStats0.committedInstType::No_OpClass         1978      0.21%      0.21% # Class of committed instruction. (Count)
board.processor.cores7.core.commitStats0.committedInstType::IntAlu       785429     81.89%     82.10% # Class of committed instruction. (Count)
board.processor.cores7.core.commitStats0.committedInstType::IntMult          203      0.02%     82.12% # Class of committed instruction. (Count)
board.processor.cores7.core.commitStats0.committedInstType::IntDiv         1407      0.15%     82.27% # Class of committed instruction. (Count)
board.processor.cores7.core.commitStats0.committedInstType::FloatAdd        19564      2.04%     84.31% # Class of committed instruction. (Count)
board.processor.cores7.core.commitStats0.committedInstType::FloatCmp            0      0.00%     84.31% # Class of committed instruction. (Count)
board.processor.cores7.core.commitStats0.committedInstType::FloatCvt            0      0.00%     84.31% # Class of committed instruction. (Count)
board.processor.cores7.core.commitStats0.committedInstType::FloatMult            0      0.00%     84.31% # Class of committed instruction. (Count)
board.processor.cores7.core.commitStats0.committedInstType::FloatMultAcc            0      0.00%     84.31% # Class of committed instruction. (Count)
board.processor.cores7.core.commitStats0.committedInstType::FloatDiv            0      0.00%     84.31% # Class of committed instruction. (Count)
board.processor.cores7.core.commitStats0.committedInstType::FloatMisc            0      0.00%     84.31% # Class of committed instruction. (Count)
board.processor.cores7.core.commitStats0.committedInstType::FloatSqrt            0      0.00%     84.31% # Class of committed instruction. (Count)
board.processor.cores7.core.commitStats0.committedInstType::SimdAdd            0      0.00%     84.31% # Class of committed instruction. (Count)
board.processor.cores7.core.commitStats0.committedInstType::SimdAddAcc            0      0.00%     84.31% # Class of committed instruction. (Count)
board.processor.cores7.core.commitStats0.committedInstType::SimdAlu         1352      0.14%     84.45% # Class of committed instruction. (Count)
board.processor.cores7.core.commitStats0.committedInstType::SimdCmp            0      0.00%     84.45% # Class of committed instruction. (Count)
board.processor.cores7.core.commitStats0.committedInstType::SimdCvt            0      0.00%     84.45% # Class of committed instruction. (Count)
board.processor.cores7.core.commitStats0.committedInstType::SimdMisc          600      0.06%     84.51% # Class of committed instruction. (Count)
board.processor.cores7.core.commitStats0.committedInstType::SimdMult            0      0.00%     84.51% # Class of committed instruction. (Count)
board.processor.cores7.core.commitStats0.committedInstType::SimdMultAcc            0      0.00%     84.51% # Class of committed instruction. (Count)
board.processor.cores7.core.commitStats0.committedInstType::SimdMatMultAcc            0      0.00%     84.51% # Class of committed instruction. (Count)
board.processor.cores7.core.commitStats0.committedInstType::SimdShift            0      0.00%     84.51% # Class of committed instruction. (Count)
board.processor.cores7.core.commitStats0.committedInstType::SimdShiftAcc            0      0.00%     84.51% # Class of committed instruction. (Count)
board.processor.cores7.core.commitStats0.committedInstType::SimdDiv            0      0.00%     84.51% # Class of committed instruction. (Count)
board.processor.cores7.core.commitStats0.committedInstType::SimdSqrt            0      0.00%     84.51% # Class of committed instruction. (Count)
board.processor.cores7.core.commitStats0.committedInstType::SimdFloatAdd        19564      2.04%     86.55% # Class of committed instruction. (Count)
board.processor.cores7.core.commitStats0.committedInstType::SimdFloatAlu            0      0.00%     86.55% # Class of committed instruction. (Count)
board.processor.cores7.core.commitStats0.committedInstType::SimdFloatCmp            0      0.00%     86.55% # Class of committed instruction. (Count)
board.processor.cores7.core.commitStats0.committedInstType::SimdFloatCvt            0      0.00%     86.55% # Class of committed instruction. (Count)
board.processor.cores7.core.commitStats0.committedInstType::SimdFloatDiv          576      0.06%     86.61% # Class of committed instruction. (Count)
board.processor.cores7.core.commitStats0.committedInstType::SimdFloatMisc            0      0.00%     86.61% # Class of committed instruction. (Count)
board.processor.cores7.core.commitStats0.committedInstType::SimdFloatMult        18688      1.95%     88.56% # Class of committed instruction. (Count)
board.processor.cores7.core.commitStats0.committedInstType::SimdFloatMultAcc            0      0.00%     88.56% # Class of committed instruction. (Count)
board.processor.cores7.core.commitStats0.committedInstType::SimdFloatMatMultAcc            0      0.00%     88.56% # Class of committed instruction. (Count)
board.processor.cores7.core.commitStats0.committedInstType::SimdFloatSqrt            0      0.00%     88.56% # Class of committed instruction. (Count)
board.processor.cores7.core.commitStats0.committedInstType::SimdReduceAdd            0      0.00%     88.56% # Class of committed instruction. (Count)
board.processor.cores7.core.commitStats0.committedInstType::SimdReduceAlu            0      0.00%     88.56% # Class of committed instruction. (Count)
board.processor.cores7.core.commitStats0.committedInstType::SimdReduceCmp            0      0.00%     88.56% # Class of committed instruction. (Count)
board.processor.cores7.core.commitStats0.committedInstType::SimdFloatReduceAdd            0      0.00%     88.56% # Class of committed instruction. (Count)
board.processor.cores7.core.commitStats0.committedInstType::SimdFloatReduceCmp            0      0.00%     88.56% # Class of committed instruction. (Count)
board.processor.cores7.core.commitStats0.committedInstType::SimdAes            0      0.00%     88.56% # Class of committed instruction. (Count)
board.processor.cores7.core.commitStats0.committedInstType::SimdAesMix            0      0.00%     88.56% # Class of committed instruction. (Count)
board.processor.cores7.core.commitStats0.committedInstType::SimdSha1Hash            0      0.00%     88.56% # Class of committed instruction. (Count)
board.processor.cores7.core.commitStats0.committedInstType::SimdSha1Hash2            0      0.00%     88.56% # Class of committed instruction. (Count)
board.processor.cores7.core.commitStats0.committedInstType::SimdSha256Hash            0      0.00%     88.56% # Class of committed instruction. (Count)
board.processor.cores7.core.commitStats0.committedInstType::SimdSha256Hash2            0      0.00%     88.56% # Class of committed instruction. (Count)
board.processor.cores7.core.commitStats0.committedInstType::SimdShaSigma2            0      0.00%     88.56% # Class of committed instruction. (Count)
board.processor.cores7.core.commitStats0.committedInstType::SimdShaSigma3            0      0.00%     88.56% # Class of committed instruction. (Count)
board.processor.cores7.core.commitStats0.committedInstType::SimdPredAlu            0      0.00%     88.56% # Class of committed instruction. (Count)
board.processor.cores7.core.commitStats0.committedInstType::Matrix            0      0.00%     88.56% # Class of committed instruction. (Count)
board.processor.cores7.core.commitStats0.committedInstType::MatrixMov            0      0.00%     88.56% # Class of committed instruction. (Count)
board.processor.cores7.core.commitStats0.committedInstType::MatrixOP            0      0.00%     88.56% # Class of committed instruction. (Count)
board.processor.cores7.core.commitStats0.committedInstType::MemRead        65865      6.87%     95.43% # Class of committed instruction. (Count)
board.processor.cores7.core.commitStats0.committedInstType::MemWrite         5318      0.55%     95.98% # Class of committed instruction. (Count)
board.processor.cores7.core.commitStats0.committedInstType::FloatMemRead        37952      3.96%     99.94% # Class of committed instruction. (Count)
board.processor.cores7.core.commitStats0.committedInstType::FloatMemWrite          576      0.06%    100.00% # Class of committed instruction. (Count)
board.processor.cores7.core.commitStats0.committedInstType::IprAccess            0      0.00%    100.00% # Class of committed instruction. (Count)
board.processor.cores7.core.commitStats0.committedInstType::InstPrefetch            0      0.00%    100.00% # Class of committed instruction. (Count)
board.processor.cores7.core.commitStats0.committedInstType::SimdUnitStrideLoad            0      0.00%    100.00% # Class of committed instruction. (Count)
board.processor.cores7.core.commitStats0.committedInstType::SimdUnitStrideStore            0      0.00%    100.00% # Class of committed instruction. (Count)
board.processor.cores7.core.commitStats0.committedInstType::SimdUnitStrideMaskLoad            0      0.00%    100.00% # Class of committed instruction. (Count)
board.processor.cores7.core.commitStats0.committedInstType::SimdUnitStrideMaskStore            0      0.00%    100.00% # Class of committed instruction. (Count)
board.processor.cores7.core.commitStats0.committedInstType::SimdStridedLoad            0      0.00%    100.00% # Class of committed instruction. (Count)
board.processor.cores7.core.commitStats0.committedInstType::SimdStridedStore            0      0.00%    100.00% # Class of committed instruction. (Count)
board.processor.cores7.core.commitStats0.committedInstType::SimdIndexedLoad            0      0.00%    100.00% # Class of committed instruction. (Count)
board.processor.cores7.core.commitStats0.committedInstType::SimdIndexedStore            0      0.00%    100.00% # Class of committed instruction. (Count)
board.processor.cores7.core.commitStats0.committedInstType::SimdWholeRegisterLoad            0      0.00%    100.00% # Class of committed instruction. (Count)
board.processor.cores7.core.commitStats0.committedInstType::SimdWholeRegisterStore            0      0.00%    100.00% # Class of committed instruction. (Count)
board.processor.cores7.core.commitStats0.committedInstType::SimdUnitStrideFaultOnlyFirstLoad            0      0.00%    100.00% # Class of committed instruction. (Count)
board.processor.cores7.core.commitStats0.committedInstType::SimdUnitStrideSegmentedLoad            0      0.00%    100.00% # Class of committed instruction. (Count)
board.processor.cores7.core.commitStats0.committedInstType::SimdUnitStrideSegmentedStore            0      0.00%    100.00% # Class of committed instruction. (Count)
board.processor.cores7.core.commitStats0.committedInstType::SimdExt            0      0.00%    100.00% # Class of committed instruction. (Count)
board.processor.cores7.core.commitStats0.committedInstType::SimdFloatExt            0      0.00%    100.00% # Class of committed instruction. (Count)
board.processor.cores7.core.commitStats0.committedInstType::SimdConfig            0      0.00%    100.00% # Class of committed instruction. (Count)
board.processor.cores7.core.commitStats0.committedInstType::total       959072                       # Class of committed instruction. (Count)
board.processor.cores7.core.executeStats0.numInsts            0                       # Number of executed instructions (Count)
board.processor.cores7.core.executeStats0.numNop            0                       # Number of nop insts executed (Count)
board.processor.cores7.core.executeStats0.numBranches            0                       # Number of branches executed (Count)
board.processor.cores7.core.executeStats0.numLoadInsts            0                       # Number of load instructions executed (Count)
board.processor.cores7.core.executeStats0.numStoreInsts            0                       # Number of stores executed (Count)
board.processor.cores7.core.executeStats0.instRate            0                       # Inst execution rate ((Count/Cycle))
board.processor.cores7.core.executeStats0.numFpRegWrites            0                       # Number of times the floating registers were written (Count)
board.processor.cores7.core.executeStats0.numMemRefs            0                       # Number of memory refs (Count)
board.processor.cores7.core.executeStats0.numVecAluAccesses            0                       # Number of vector alu accesses (Count)
board.processor.cores7.core.executeStats0.numDiscardedOps       326815                       # Number of ops (including micro ops) which were discarded before commit (Count)
board.processor.cores7.core.fetch2.intInstructions            0                       # Number of integer instructions successfully decoded (Count)
board.processor.cores7.core.fetch2.fpInstructions            0                       # Number of floating point instructions successfully decoded (Count)
board.processor.cores7.core.fetch2.vecInstructions            0                       # Number of SIMD instructions successfully decoded (Count)
board.processor.cores7.core.fetch2.loadInstructions            0                       # Number of memory load instructions successfully decoded (Count)
board.processor.cores7.core.fetch2.storeInstructions            0                       # Number of memory store instructions successfully decoded (Count)
board.processor.cores7.core.fetch2.amoInstructions            0                       # Number of memory atomic instructions successfully decoded (Count)
board.processor.cores7.core.fetchStats0.numInsts            0                       # Number of instructions fetched (thread level) (Count)
board.processor.cores7.core.fetchStats0.numOps            0                       # Number of ops (including micro ops) fetched (thread level) (Count)
board.processor.cores7.core.fetchStats0.fetchRate            0                       # Number of inst fetches per cycle ((Count/Cycle))
board.processor.cores7.core.fetchStats0.branchRate            0                       # Number of branch fetches per cycle (Ratio)
board.processor.cores7.core.fetchStats0.numFetchSuspends            0                       # Number of times Execute suspended instruction fetching (Count)
board.processor.cores7.core.interrupts.clk_domain.clock         5328                       # Clock period in ticks (Tick)
board.processor.cores7.core.mmu.dtb.rdAccesses       176818                       # TLB accesses on read requests (Count)
board.processor.cores7.core.mmu.dtb.wrAccesses         6791                       # TLB accesses on write requests (Count)
board.processor.cores7.core.mmu.dtb.rdMisses           34                       # TLB misses on read requests (Count)
board.processor.cores7.core.mmu.dtb.wrMisses            0                       # TLB misses on write requests (Count)
board.processor.cores7.core.mmu.dtb.walker.power_state.pwrStateResidencyTicks::UNDEFINED   2114311239                       # Cumulative time (in ticks) in various power states (Tick)
board.processor.cores7.core.mmu.itb.rdAccesses            0                       # TLB accesses on read requests (Count)
board.processor.cores7.core.mmu.itb.wrAccesses       205632                       # TLB accesses on write requests (Count)
board.processor.cores7.core.mmu.itb.rdMisses            0                       # TLB misses on read requests (Count)
board.processor.cores7.core.mmu.itb.wrMisses            0                       # TLB misses on write requests (Count)
board.processor.cores7.core.mmu.itb.walker.power_state.pwrStateResidencyTicks::UNDEFINED   2114311239                       # Cumulative time (in ticks) in various power states (Tick)
board.processor.cores7.core.power_state.pwrStateResidencyTicks::ON   2114311239                       # Cumulative time (in ticks) in various power states (Tick)
board.processor.cores7.core.thread_0.numInsts       544903                       # Number of Instructions committed (Count)
board.processor.cores7.core.thread_0.numOps       959072                       # Number of Ops committed (Count)
board.processor.cores7.core.thread_0.numMemRefs            0                       # Number of Memory References (Count)
board.workload.inst.arm                             0                       # number of arm instructions executed (Count)
board.workload.inst.quiesce                         0                       # number of quiesce instructions executed (Count)
board.processor.cores0.core.idleCycles         273237                       # Total number of cycles that the object has spent stopped (Unspecified)
board.processor.cores0.core.tickCycles        1348342                       # Number of cycles that the object actually ticked (Unspecified)
board.processor.cores1.core.idleCycles          96234                       # Total number of cycles that the object has spent stopped (Unspecified)
board.processor.cores1.core.tickCycles        1525345                       # Number of cycles that the object actually ticked (Unspecified)
board.processor.cores2.core.idleCycles          98089                       # Total number of cycles that the object has spent stopped (Unspecified)
board.processor.cores2.core.tickCycles        1523490                       # Number of cycles that the object actually ticked (Unspecified)
board.processor.cores3.core.idleCycles          97621                       # Total number of cycles that the object has spent stopped (Unspecified)
board.processor.cores3.core.tickCycles        1523958                       # Number of cycles that the object actually ticked (Unspecified)
board.processor.cores4.core.idleCycles          99906                       # Total number of cycles that the object has spent stopped (Unspecified)
board.processor.cores4.core.tickCycles        1521673                       # Number of cycles that the object actually ticked (Unspecified)
board.processor.cores5.core.idleCycles          99583                       # Total number of cycles that the object has spent stopped (Unspecified)
board.processor.cores5.core.tickCycles        1521996                       # Number of cycles that the object actually ticked (Unspecified)
board.processor.cores6.core.idleCycles          96863                       # Total number of cycles that the object has spent stopped (Unspecified)
board.processor.cores6.core.tickCycles        1524716                       # Number of cycles that the object actually ticked (Unspecified)
board.processor.cores7.core.idleCycles          92930                       # Total number of cycles that the object has spent stopped (Unspecified)
board.processor.cores7.core.tickCycles        1528649                       # Number of cycles that the object actually ticked (Unspecified)

---------- End Simulation Statistics   ----------
