Global frequency set at 1000000000000 ticks per second
src/mem/dram_interface.cc:690: warn: DRAM device capacity (8192 Mbytes) does not match the address range assigned (512 Mbytes)
src/base/statistics.hh:279: warn: One of the stats is a legacy stat. Legacy stat is a stat that does not belong to any statistics::Group. Legacy stat is deprecated.
src/base/statistics.hh:279: warn: One of the stats is a legacy stat. Legacy stat is a stat that does not belong to any statistics::Group. Legacy stat is deprecated.
src/base/statistics.hh:279: warn: One of the stats is a legacy stat. Legacy stat is a stat that does not belong to any statistics::Group. Legacy stat is deprecated.
src/base/remote_gdb.cc:418: warn: Sockets disabled, not accepting gdb connections
gem5 Simulator System.  https://www.gem5.org
gem5 is copyrighted software; use the --copyright option for details.

gem5 version 24.1.0.2
gem5 compiled May 14 2025 10:23:50
gem5 started May 31 2025 17:36:02
gem5 executing on wn116.arnes.si, pid 1122210
command line: /d/hpc/projects/FRI/GEM5/gem5_workspace/gem5/build/VEGA_X86//gem5.opt --outdir=opt_CU8_stats /d/hpc/projects/FRI/GEM5/gem5_workspace/gem5/configs/example/apu_se.py -n 3 --num-compute-units 8 --gfx-version=gfx902 -c ./histogram/bin/histogram_opt

info: Standard input is not a terminal, disabling listeners.
Num SQC =  2 Num scalar caches =  2 Num CU =  8
incrementing idx on  4
incrementing idx on  4
warn: system.ruby.network adopting orphan SimObject param 'ext_links'
warn: system.ruby.network adopting orphan SimObject param 'int_links'
src/sim/simulate.cc:199: info: Entering event queue @ 0.  Starting simulation...
src/mem/ruby/system/Sequencer.cc:704: warn: Replacement policy updates recently became the responsibility of SLICC state machines. Make sure to setMRU() near callbacks in .sm files!
src/sim/mem_state.cc:448: info: Increasing stack size by one page.
src/base/loader/symtab.cc:95: warn: Cannot insert a new symbol table due to name collisions. Adding prefix to each symbol's name can resolve this issue.
src/base/loader/symtab.cc:95: warn: Cannot insert a new symbol table due to name collisions. Adding prefix to each symbol's name can resolve this issue.
src/base/loader/symtab.cc:95: warn: Cannot insert a new symbol table due to name collisions. Adding prefix to each symbol's name can resolve this issue.
src/base/loader/symtab.cc:95: warn: Cannot insert a new symbol table due to name collisions. Adding prefix to each symbol's name can resolve this issue.
src/sim/syscall_emul.cc:86: warn: ignoring syscall mprotect(...)
src/sim/syscall_emul.cc:86: warn: ignoring syscall mprotect(...)
src/base/loader/symtab.cc:95: warn: Cannot insert a new symbol table due to name collisions. Adding prefix to each symbol's name can resolve this issue.
src/sim/syscall_emul.cc:86: warn: ignoring syscall mprotect(...)
src/base/loader/symtab.cc:95: warn: Cannot insert a new symbol table due to name collisions. Adding prefix to each symbol's name can resolve this issue.
src/base/loader/symtab.cc:95: warn: Cannot insert a new symbol table due to name collisions. Adding prefix to each symbol's name can resolve this issue.
src/base/loader/symtab.cc:95: warn: Cannot insert a new symbol table due to name collisions. Adding prefix to each symbol's name can resolve this issue.
src/base/loader/symtab.cc:95: warn: Cannot insert a new symbol table due to name collisions. Adding prefix to each symbol's name can resolve this issue.
src/sim/syscall_emul.cc:86: warn: ignoring syscall mprotect(...)
src/base/loader/symtab.cc:95: warn: Cannot insert a new symbol table due to name collisions. Adding prefix to each symbol's name can resolve this issue.
src/base/loader/symtab.cc:95: warn: Cannot insert a new symbol table due to name collisions. Adding prefix to each symbol's name can resolve this issue.
src/sim/syscall_emul.cc:86: warn: ignoring syscall mprotect(...)
src/base/loader/symtab.cc:95: warn: Cannot insert a new symbol table due to name collisions. Adding prefix to each symbol's name can resolve this issue.
src/sim/syscall_emul.cc:86: warn: ignoring syscall mprotect(...)
src/sim/syscall_emul.cc:86: warn: ignoring syscall mprotect(...)
src/sim/syscall_emul.cc:86: warn: ignoring syscall mprotect(...)
src/sim/syscall_emul.cc:86: warn: ignoring syscall mprotect(...)
src/sim/syscall_emul.cc:86: warn: ignoring syscall mprotect(...)
src/sim/syscall_emul.cc:86: warn: ignoring syscall mprotect(...)
src/sim/syscall_emul.cc:86: warn: ignoring syscall mprotect(...)
src/sim/syscall_emul.cc:86: warn: ignoring syscall mprotect(...)
src/sim/syscall_emul.cc:86: warn: ignoring syscall mprotect(...)
src/sim/syscall_emul.cc:86: warn: ignoring syscall mprotect(...)
src/sim/syscall_emul.cc:86: warn: ignoring syscall mprotect(...)
src/sim/syscall_emul.cc:86: warn: ignoring syscall mprotect(...)
src/sim/syscall_emul.cc:86: warn: ignoring syscall mprotect(...)
src/sim/syscall_emul.cc:86: warn: ignoring syscall mprotect(...)
src/sim/syscall_emul.cc:86: warn: ignoring syscall mprotect(...)
src/sim/syscall_emul.cc:86: warn: ignoring syscall mprotect(...)
src/sim/syscall_emul.cc:86: warn: ignoring syscall mprotect(...)
src/sim/syscall_emul.cc:86: warn: ignoring syscall mprotect(...)
src/sim/syscall_emul.cc:86: warn: ignoring syscall mprotect(...)
src/sim/syscall_emul.cc:86: warn: ignoring syscall set_robust_list(...)
src/sim/syscall_emul.cc:97: warn: ignoring syscall rt_sigaction(...)
      (further warnings will be suppressed)
src/sim/syscall_emul.cc:97: warn: ignoring syscall rt_sigprocmask(...)
      (further warnings will be suppressed)
src/sim/syscall_emul.cc:86: warn: ignoring syscall get_mempolicy(...)
build/VEGA_X86/arch/x86/generated/exec-ns.cc.inc:27: warn: instruction 'frndint' unimplemented
src/sim/mem_state.cc:448: info: Increasing stack size by one page.
src/sim/mem_state.cc:448: info: Increasing stack size by one page.
src/sim/mem_state.cc:448: info: Increasing stack size by one page.
src/sim/mem_state.cc:448: info: Increasing stack size by one page.
src/sim/mem_state.cc:448: info: Increasing stack size by one page.
src/sim/mem_state.cc:448: info: Increasing stack size by one page.
src/sim/mem_state.cc:448: info: Increasing stack size by one page.
src/sim/mem_state.cc:448: info: Increasing stack size by one page.
src/sim/mem_state.cc:448: info: Increasing stack size by one page.
Loaded image 512x512
src/gpu-compute/gpu_compute_driver.cc:675: warn: unimplemented ioctl: AMDKFD_IOC_ACQUIRE_VM
src/sim/syscall_emul.cc:86: warn: ignoring syscall mbind(...)
src/gpu-compute/gpu_compute_driver.cc:283: warn: unimplemented ioctl: AMDKFD_IOC_SET_MEMORY_POLICY
src/sim/syscall_emul.hh:2033: warn: mmap: writing to shared mmap region is currently unsupported. The write succeeds on the target, but it will not be propagated to the host or shared mappings
src/gpu-compute/gpu_compute_driver.cc:144: warn: Unrecognized kfd mmap type 0
src/gpu-compute/gpu_compute_driver.cc:852: warn: unimplemented ioctl: AMDKFD_IOC_MAP_MEMORY_TO_GPU
src/gpu-compute/gpu_compute_driver.cc:441: warn: Signal events are only supported currently
src/sim/syscall_emul.cc:86: warn: ignoring syscall mprotect(...)
src/sim/power_state.cc:105: warn: PowerState: Already in the requested power state, request ignored
src/sim/syscall_emul.cc:86: warn: ignoring syscall set_robust_list(...)
src/sim/syscall_emul.cc:86: warn: ignoring syscall mprotect(...)
src/gpu-compute/gpu_compute_driver.cc:585: warn: unimplemented ioctl: AMDKFD_IOC_SET_SCRATCH_BACKING_VA
src/gpu-compute/gpu_compute_driver.cc:595: warn: unimplemented ioctl: AMDKFD_IOC_SET_TRAP_HANDLER
src/sim/syscall_emul.cc:86: warn: ignoring syscall mprotect(...)
src/sim/syscall_emul.cc:86: warn: ignoring syscall set_robust_list(...)
src/sim/syscall_emul.cc:86: warn: ignoring syscall mprotect(...)
src/sim/syscall_emul.cc:86: warn: ignoring syscall madvise(...)
src/sim/syscall_emul.cc:86: warn: ignoring syscall mprotect(...)
src/sim/syscall_emul.cc:86: warn: ignoring syscall sched_setaffinity(...)
src/sim/syscall_emul.cc:86: warn: ignoring syscall set_robust_list(...)
src/sim/syscall_emul.cc:97: warn: ignoring syscall sched_yield(...)
      (further warnings will be suppressed)
src/sim/syscall_emul.cc:86: warn: ignoring syscall mprotect(...)
src/sim/syscall_emul.cc:86: warn: ignoring syscall mprotect(...)
src/sim/syscall_emul.cc:86: warn: ignoring syscall mprotect(...)
src/sim/syscall_emul.cc:86: warn: ignoring syscall mprotect(...)
src/sim/syscall_emul.cc:86: warn: ignoring syscall mprotect(...)
src/sim/syscall_emul.cc:86: warn: ignoring syscall mprotect(...)
src/sim/syscall_emul.cc:86: warn: ignoring syscall mprotect(...)
src/sim/syscall_emul.cc:86: warn: ignoring syscall mprotect(...)
src/sim/syscall_emul.cc:86: warn: ignoring syscall mprotect(...)
src/sim/syscall_emul.cc:86: warn: ignoring syscall mprotect(...)
src/sim/syscall_emul.cc:86: warn: ignoring syscall mprotect(...)
src/sim/syscall_emul.cc:86: warn: ignoring syscall mprotect(...)
build/VEGA_X86/arch/x86/generated/exec-ns.cc.inc:27: warn: instruction 'frndint' unimplemented
src/gpu-compute/gpu_command_processor.cc:624: warn: Ignoring vendor packet
GPU Kernel Completed dump and reset
src/sim/simulate.cc:199: info: Entering event queue @ 107618006000.  Starting simulation...
Optimized histogram computed.
Bin   0: optimized =      0
Bin   1: optimized =      0
Bin   2: optimized =      0
Bin   3: optimized =      0
Bin   4: optimized =      0
Bin   5: optimized =      0
Bin   6: optimized =      0
Bin   7: optimized =      0
Bin   8: optimized =      0
Bin   9: optimized =      0
Bin  10: optimized =      0
Bin  11: optimized =      0
Bin  12: optimized =      0
Bin  13: optimized =      0
Bin  14: optimized =      0
Bin  15: optimized =      0
Bin  16: optimized =      0
Bin  17: optimized =      0
Bin  18: optimized =      0
Bin  19: optimized =      0
Bin  20: optimized =      0
Bin  21: optimized =      0
Bin  22: optimized =      0
Bin  23: optimized =      0
Bin  24: optimized =      0
Bin  25: optimized =      0
Bin  26: optimized =      0
Bin  27: optimized =      0
Bin  28: optimized =      0
Bin  29: optimized =      0
Bin  30: optimized =      0
Bin  31: optimized =      0
Bin  32: optimized =      0
Bin  33: optimized =      0
Bin  34: optimized =      3
Bin  35: optimized =      1
Bin  36: optimized =     15
Bin  37: optimized =     29
Bin  38: optimized =     60
Bin  39: optimized =     73
Bin  40: optimized =    153
Bin  41: optimized =    193
Bin  42: optimized =    320
Bin  43: optimized =    383
Bin  44: optimized =    537
Bin  45: optimized =    706
Bin  46: optimized =    930
Bin  47: optimized =   1120
Bin  48: optimized =   1377
Bin  49: optimized =   1683
Bin  50: optimized =   1896
Bin  51: optimized =   2250
Bin  52: optimized =   2375
Bin  53: optimized =   2468
Bin  54: optimized =   2523
Bin  55: optimized =   2567
Bin  56: optimized =   2556
Bin  57: optimized =   2448
Bin  58: optimized =   2267
Bin  59: optimized =   2095
Bin  60: optimized =   2026
Bin  61: optimized =   1836
Bin  62: optimized =   1595
Bin  63: optimized =   1434
Bin  64: optimized =   1303
Bin  65: optimized =   1240
Bin  66: optimized =   1124
Bin  67: optimized =   1050
Bin  68: optimized =    943
Bin  69: optimized =    901
Bin  70: optimized =    868
Bin  71: optimized =    841
Bin  72: optimized =    851
Bin  73: optimized =    849
Bin  74: optimized =    826
Bin  75: optimized =    823
Bin  76: optimized =    795
Bin  77: optimized =    907
Bin  78: optimized =    885
Bin  79: optimized =    882
Bin  80: optimized =    917
Bin  81: optimized =   1008
Bin  82: optimized =    982
Bin  83: optimized =    988
Bin  84: optimized =   1028
Bin  85: optimized =    980
Bin  86: optimized =    996
Bin  87: optimized =    991
Bin  88: optimized =   1020
Bin  89: optimized =   1077
Bin  90: optimized =   1048
Bin  91: optimized =   1146
Bin  92: optimized =   1174
Bin  93: optimized =   1139
Bin  94: optimized =   1259
Bin  95: optimized =   1288
Bin  96: optimized =   1298
Bin  97: optimized =   1341
Bin  98: optimized =   1348
Bin  99: optimized =   1565
Bin 100: optimized =   1630
Bin 101: optimized =   1836
Bin 102: optimized =   2072
Bin 103: optimized =   2248
Bin 104: optimized =   2235
Bin 105: optimized =   2287
Bin 106: optimized =   2126
Bin 107: optimized =   1991
Bin 108: optimized =   1853
Bin 109: optimized =   1660
Bin 110: optimized =   1595
Bin 111: optimized =   1490
Bin 112: optimized =   1419
Bin 113: optimized =   1432
Bin 114: optimized =   1410
Bin 115: optimized =   1482
Bin 116: optimized =   1513
Bin 117: optimized =   1484
Bin 118: optimized =   1538
Bin 119: optimized =   1503
Bin 120: optimized =   1663
Bin 121: optimized =   1692
Bin 122: optimized =   1812
Bin 123: optimized =   1787
Bin 124: optimized =   1954
Bin 125: optimized =   2006
Bin 126: optimized =   2038
Bin 127: optimized =   2309
Bin 128: optimized =   2595
Bin 129: optimized =   2650
Bin 130: optimized =   2759
Bin 131: optimized =   2776
Bin 132: optimized =   2712
Bin 133: optimized =   2484
Bin 134: optimized =   2264
Bin 135: optimized =   2143
Bin 136: optimized =   2057
Bin 137: optimized =   2022
Bin 138: optimized =   2225
Bin 139: optimized =   2209
Bin 140: optimized =   2438
Bin 141: optimized =   2633
Bin 142: optimized =   2619
Bin 143: optimized =   2742
Bin 144: optimized =   2672
Bin 145: optimized =   2752
Bin 146: optimized =   2611
Bin 147: optimized =   2441
Bin 148: optimized =   2475
Bin 149: optimized =   2386
Bin 150: optimized =   2443
Bin 151: optimized =   2609
Bin 152: optimized =   2726
Bin 153: optimized =   2859
Bin 154: optimized =   2842
Bin 155: optimized =   2745
Bin 156: optimized =   2564
Bin 157: optimized =   2368
Bin 158: optimized =   2145
Bin 159: optimized =   1927
Bin 160: optimized =   1760
Bin 161: optimized =   1655
Bin 162: optimized =   1529
Bin 163: optimized =   1401
Bin 164: optimized =   1303
Bin 165: optimized =   1317
Bin 166: optimized =   1280
Bin 167: optimized =   1267
Bin 168: optimized =   1157
Bin 169: optimized =   1223
Bin 170: optimized =   1266
Bin 171: optimized =   1282
Bin 172: optimized =   1294
Bin 173: optimized =   1251
Bin 174: optimized =   1188
Bin 175: optimized =   1191
Bin 176: optimized =   1125
Bin 177: optimized =   1057
Bin 178: optimized =    986
Bin 179: optimized =    878
Bin 180: optimized =    747
Bin 181: optimized =    692
Bin 182: optimized =    669
Bin 183: optimized =    644
Bin 184: optimized =    681
Bin 185: optimized =    635
Bin 186: optimized =    604
Bin 187: optimized =    664
Bin 188: optimized =    720
Bin 189: optimized =    761
Bin 190: optimized =    785
Bin 191: optimized =    865
Bin 192: optimized =    860
Bin 193: optimized =    904
Bin 194: optimized =    936
Bin 195: optimized =    929
Bin 196: optimized =    873
Bin 197: optimized =    926
Bin 198: optimized =    883
Bin 199: optimized =    794
Bin 200: optimized =    805
Bin 201: optimized =    795
Bin 202: optimized =    791
Bin 203: optimized =    807
Bin 204: optimized =    829
Bin 205: optimized =    910
Bin 206: optimized =    990
Bin 207: optimized =    999
Bin 208: optimized =    987
Bin 209: optimized =    967
Bin 210: optimized =    918
Bin 211: optimized =    863
Bin 212: optimized =    779
Bin 213: optimized =    686
Bin 214: optimized =    553
Bin 215: optimized =    443
Bin 216: optimized =    361
Bin 217: optimized =    360
Bin 218: optimized =    321
Bin 219: optimized =    285
Bin 220: optimized =    216
Bin 221: optimized =    206
Bin 222: optimized =    186
Bin 223: optimized =    151
Bin 224: optimized =     99
Bin 225: optimized =     82
Bin 226: optimized =     46
Bin 227: optimized =     57
Bin 228: optimized =     43
Bin 229: optimized =     19
Bin 230: optimized =     17
Bin 231: optimized =     13
Bin 232: optimized =      3
Bin 233: optimized =      9
Bin 234: optimized =      2
Bin 235: optimized =      0
Bin 236: optimized =      1
Bin 237: optimized =      0
Bin 238: optimized =      1
Bin 239: optimized =      0
Bin 240: optimized =      0
Bin 241: optimized =      0
Bin 242: optimized =      0
Bin 243: optimized =      1
Bin 244: optimized =      1
Bin 245: optimized =      1
Bin 246: optimized =      0
Bin 247: optimized =      1
Bin 248: optimized =      0
Bin 249: optimized =      0
Bin 250: optimized =      0
Bin 251: optimized =      0
Bin 252: optimized =      0
Bin 253: optimized =      0
Bin 254: optimized =      0
Bin 255: optimized =      0
breaking loop due to: exiting with last active thread context.
Ticks: 112746424500
Exiting because  exiting with last active thread context
