
---------- Begin Simulation Statistics ----------
simSeconds                                   0.171715                       # Number of seconds simulated (Second)
simTicks                                 171715073706                       # Number of ticks simulated (Tick)
finalTick                                171715073706                       # Number of ticks from beginning of simulation (restored from checkpoints and never reset) (Tick)
simFreq                                  1000000000000                       # The number of ticks per simulated second ((Tick/Second))
hostSeconds                                    379.51                       # Real time elapsed on the host (Second)
hostTickRate                                452459397                       # The number of ticks simulated per host second (ticks/s) ((Tick/Second))
hostMemory                                    2297240                       # Number of bytes of host memory used (Byte)
simInsts                                    137732301                       # Number of instructions simulated (Count)
simOps                                      240462150                       # Number of ops (including micro ops) simulated (Count)
hostInstRate                                   362917                       # Simulator instruction rate (inst/s) ((Count/Second))
hostOpRate                                     633604                       # Simulator op (including micro ops) rate (op/s) ((Count/Second))
board.cache_hierarchy.dptw_cache.blockedCycles::no_mshrs            0                       # number of cycles access was blocked (Cycle)
board.cache_hierarchy.dptw_cache.blockedCycles::no_targets            0                       # number of cycles access was blocked (Cycle)
board.cache_hierarchy.dptw_cache.blockedCauses::no_mshrs            0                       # number of times access was blocked (Count)
board.cache_hierarchy.dptw_cache.blockedCauses::no_targets            0                       # number of times access was blocked (Count)
board.cache_hierarchy.dptw_cache.avgBlocked::no_mshrs          nan                       # average number of cycles each access was blocked ((Cycle/Count))
board.cache_hierarchy.dptw_cache.avgBlocked::no_targets          nan                       # average number of cycles each access was blocked ((Cycle/Count))
board.cache_hierarchy.dptw_cache.replacements            0                       # number of replacements (Count)
board.cache_hierarchy.dptw_cache.power_state.pwrStateResidencyTicks::UNDEFINED 171715073706                       # Cumulative time (in ticks) in various power states (Tick)
board.cache_hierarchy.dptw_cache.tags.tagsInUse            0                       # Average ticks per tags in use ((Tick/Count))
board.cache_hierarchy.dptw_cache.tags.totalRefs            0                       # Total number of references to valid blocks. (Count)
board.cache_hierarchy.dptw_cache.tags.sampledRefs            0                       # Sample count of references to valid blocks. (Count)
board.cache_hierarchy.dptw_cache.tags.avgRefs          nan                       # Average number of references to valid blocks. ((Count/Count))
board.cache_hierarchy.dptw_cache.tags.warmupTick            0                       # The tick when the warmup percentage was hit. (Tick)
board.cache_hierarchy.dptw_cache.tags.tagAccesses            0                       # Number of tag accesses (Count)
board.cache_hierarchy.dptw_cache.tags.dataAccesses            0                       # Number of data accesses (Count)
board.cache_hierarchy.dptw_cache.tags.power_state.pwrStateResidencyTicks::UNDEFINED 171715073706                       # Cumulative time (in ticks) in various power states (Tick)
board.cache_hierarchy.iptw_cache.blockedCycles::no_mshrs            0                       # number of cycles access was blocked (Cycle)
board.cache_hierarchy.iptw_cache.blockedCycles::no_targets            0                       # number of cycles access was blocked (Cycle)
board.cache_hierarchy.iptw_cache.blockedCauses::no_mshrs            0                       # number of times access was blocked (Count)
board.cache_hierarchy.iptw_cache.blockedCauses::no_targets            0                       # number of times access was blocked (Count)
board.cache_hierarchy.iptw_cache.avgBlocked::no_mshrs          nan                       # average number of cycles each access was blocked ((Cycle/Count))
board.cache_hierarchy.iptw_cache.avgBlocked::no_targets          nan                       # average number of cycles each access was blocked ((Cycle/Count))
board.cache_hierarchy.iptw_cache.replacements            0                       # number of replacements (Count)
board.cache_hierarchy.iptw_cache.power_state.pwrStateResidencyTicks::UNDEFINED 171715073706                       # Cumulative time (in ticks) in various power states (Tick)
board.cache_hierarchy.iptw_cache.tags.tagsInUse            0                       # Average ticks per tags in use ((Tick/Count))
board.cache_hierarchy.iptw_cache.tags.totalRefs            0                       # Total number of references to valid blocks. (Count)
board.cache_hierarchy.iptw_cache.tags.sampledRefs            0                       # Sample count of references to valid blocks. (Count)
board.cache_hierarchy.iptw_cache.tags.avgRefs          nan                       # Average number of references to valid blocks. ((Count/Count))
board.cache_hierarchy.iptw_cache.tags.warmupTick            0                       # The tick when the warmup percentage was hit. (Tick)
board.cache_hierarchy.iptw_cache.tags.tagAccesses            0                       # Number of tag accesses (Count)
board.cache_hierarchy.iptw_cache.tags.dataAccesses            0                       # Number of data accesses (Count)
board.cache_hierarchy.iptw_cache.tags.power_state.pwrStateResidencyTicks::UNDEFINED 171715073706                       # Cumulative time (in ticks) in various power states (Tick)
board.cache_hierarchy.l1_dcache.demandHits::processor.cores.core.data     49349613                       # number of demand (read+write) hits (Count)
board.cache_hierarchy.l1_dcache.demandHits::total     49349613                       # number of demand (read+write) hits (Count)
board.cache_hierarchy.l1_dcache.overallHits::processor.cores.core.data     49349613                       # number of overall hits (Count)
board.cache_hierarchy.l1_dcache.overallHits::total     49349613                       # number of overall hits (Count)
board.cache_hierarchy.l1_dcache.demandMisses::processor.cores.core.data     18826713                       # number of demand (read+write) misses (Count)
board.cache_hierarchy.l1_dcache.demandMisses::total     18826713                       # number of demand (read+write) misses (Count)
board.cache_hierarchy.l1_dcache.overallMisses::processor.cores.core.data     18826713                       # number of overall misses (Count)
board.cache_hierarchy.l1_dcache.overallMisses::total     18826713                       # number of overall misses (Count)
board.cache_hierarchy.l1_dcache.demandMissLatency::processor.cores.core.data  97797284820                       # number of demand (read+write) miss ticks (Tick)
board.cache_hierarchy.l1_dcache.demandMissLatency::total  97797284820                       # number of demand (read+write) miss ticks (Tick)
board.cache_hierarchy.l1_dcache.overallMissLatency::processor.cores.core.data  97797284820                       # number of overall miss ticks (Tick)
board.cache_hierarchy.l1_dcache.overallMissLatency::total  97797284820                       # number of overall miss ticks (Tick)
board.cache_hierarchy.l1_dcache.demandAccesses::processor.cores.core.data     68176326                       # number of demand (read+write) accesses (Count)
board.cache_hierarchy.l1_dcache.demandAccesses::total     68176326                       # number of demand (read+write) accesses (Count)
board.cache_hierarchy.l1_dcache.overallAccesses::processor.cores.core.data     68176326                       # number of overall (read+write) accesses (Count)
board.cache_hierarchy.l1_dcache.overallAccesses::total     68176326                       # number of overall (read+write) accesses (Count)
board.cache_hierarchy.l1_dcache.demandMissRate::processor.cores.core.data     0.276147                       # miss rate for demand accesses (Ratio)
board.cache_hierarchy.l1_dcache.demandMissRate::total     0.276147                       # miss rate for demand accesses (Ratio)
board.cache_hierarchy.l1_dcache.overallMissRate::processor.cores.core.data     0.276147                       # miss rate for overall accesses (Ratio)
board.cache_hierarchy.l1_dcache.overallMissRate::total     0.276147                       # miss rate for overall accesses (Ratio)
board.cache_hierarchy.l1_dcache.demandAvgMissLatency::processor.cores.core.data  5194.602203                       # average overall miss latency in ticks ((Tick/Count))
board.cache_hierarchy.l1_dcache.demandAvgMissLatency::total  5194.602203                       # average overall miss latency in ticks ((Tick/Count))
board.cache_hierarchy.l1_dcache.overallAvgMissLatency::processor.cores.core.data  5194.602203                       # average overall miss latency ((Tick/Count))
board.cache_hierarchy.l1_dcache.overallAvgMissLatency::total  5194.602203                       # average overall miss latency ((Tick/Count))
board.cache_hierarchy.l1_dcache.blockedCycles::no_mshrs            0                       # number of cycles access was blocked (Cycle)
board.cache_hierarchy.l1_dcache.blockedCycles::no_targets            0                       # number of cycles access was blocked (Cycle)
board.cache_hierarchy.l1_dcache.blockedCauses::no_mshrs            0                       # number of times access was blocked (Count)
board.cache_hierarchy.l1_dcache.blockedCauses::no_targets            0                       # number of times access was blocked (Count)
board.cache_hierarchy.l1_dcache.avgBlocked::no_mshrs          nan                       # average number of cycles each access was blocked ((Cycle/Count))
board.cache_hierarchy.l1_dcache.avgBlocked::no_targets          nan                       # average number of cycles each access was blocked ((Cycle/Count))
board.cache_hierarchy.l1_dcache.writebacks::writebacks       682088                       # number of writebacks (Count)
board.cache_hierarchy.l1_dcache.writebacks::total       682088                       # number of writebacks (Count)
board.cache_hierarchy.l1_dcache.demandMshrHits::processor.cores.core.data         2676                       # number of demand (read+write) MSHR hits (Count)
board.cache_hierarchy.l1_dcache.demandMshrHits::total         2676                       # number of demand (read+write) MSHR hits (Count)
board.cache_hierarchy.l1_dcache.overallMshrHits::processor.cores.core.data         2676                       # number of overall MSHR hits (Count)
board.cache_hierarchy.l1_dcache.overallMshrHits::total         2676                       # number of overall MSHR hits (Count)
board.cache_hierarchy.l1_dcache.demandMshrMisses::processor.cores.core.data     18824037                       # number of demand (read+write) MSHR misses (Count)
board.cache_hierarchy.l1_dcache.demandMshrMisses::total     18824037                       # number of demand (read+write) MSHR misses (Count)
board.cache_hierarchy.l1_dcache.overallMshrMisses::cache_hierarchy.l1_dcache.prefetcher       825465                       # number of overall MSHR misses (Count)
board.cache_hierarchy.l1_dcache.overallMshrMisses::processor.cores.core.data     18824037                       # number of overall MSHR misses (Count)
board.cache_hierarchy.l1_dcache.overallMshrMisses::total     19649502                       # number of overall MSHR misses (Count)
board.cache_hierarchy.l1_dcache.demandMshrMissLatency::processor.cores.core.data  91480270491                       # number of demand (read+write) MSHR miss ticks (Tick)
board.cache_hierarchy.l1_dcache.demandMshrMissLatency::total  91480270491                       # number of demand (read+write) MSHR miss ticks (Tick)
board.cache_hierarchy.l1_dcache.overallMshrMissLatency::cache_hierarchy.l1_dcache.prefetcher   7198849575                       # number of overall MSHR miss ticks (Tick)
board.cache_hierarchy.l1_dcache.overallMshrMissLatency::processor.cores.core.data  91480270491                       # number of overall MSHR miss ticks (Tick)
board.cache_hierarchy.l1_dcache.overallMshrMissLatency::total  98679120066                       # number of overall MSHR miss ticks (Tick)
board.cache_hierarchy.l1_dcache.demandMshrMissRate::processor.cores.core.data     0.276108                       # mshr miss ratio for demand accesses (Ratio)
board.cache_hierarchy.l1_dcache.demandMshrMissRate::total     0.276108                       # mshr miss ratio for demand accesses (Ratio)
board.cache_hierarchy.l1_dcache.overallMshrMissRate::cache_hierarchy.l1_dcache.prefetcher          inf                       # mshr miss ratio for overall accesses (Ratio)
board.cache_hierarchy.l1_dcache.overallMshrMissRate::processor.cores.core.data     0.276108                       # mshr miss ratio for overall accesses (Ratio)
board.cache_hierarchy.l1_dcache.overallMshrMissRate::total     0.288216                       # mshr miss ratio for overall accesses (Ratio)
board.cache_hierarchy.l1_dcache.demandAvgMshrMissLatency::processor.cores.core.data  4859.758323                       # average overall mshr miss latency ((Tick/Count))
board.cache_hierarchy.l1_dcache.demandAvgMshrMissLatency::total  4859.758323                       # average overall mshr miss latency ((Tick/Count))
board.cache_hierarchy.l1_dcache.overallAvgMshrMissLatency::cache_hierarchy.l1_dcache.prefetcher  8720.962821                       # average overall mshr miss latency ((Tick/Count))
board.cache_hierarchy.l1_dcache.overallAvgMshrMissLatency::processor.cores.core.data  4859.758323                       # average overall mshr miss latency ((Tick/Count))
board.cache_hierarchy.l1_dcache.overallAvgMshrMissLatency::total  5021.965446                       # average overall mshr miss latency ((Tick/Count))
board.cache_hierarchy.l1_dcache.replacements     19649442                       # number of replacements (Count)
board.cache_hierarchy.l1_dcache.HardPFReq.mshrMisses::cache_hierarchy.l1_dcache.prefetcher       825465                       # number of HardPFReq MSHR misses (Count)
board.cache_hierarchy.l1_dcache.HardPFReq.mshrMisses::total       825465                       # number of HardPFReq MSHR misses (Count)
board.cache_hierarchy.l1_dcache.HardPFReq.mshrMissLatency::cache_hierarchy.l1_dcache.prefetcher   7198849575                       # number of HardPFReq MSHR miss ticks (Tick)
board.cache_hierarchy.l1_dcache.HardPFReq.mshrMissLatency::total   7198849575                       # number of HardPFReq MSHR miss ticks (Tick)
board.cache_hierarchy.l1_dcache.HardPFReq.mshrMissRate::cache_hierarchy.l1_dcache.prefetcher          inf                       # mshr miss rate for HardPFReq accesses (Ratio)
board.cache_hierarchy.l1_dcache.HardPFReq.mshrMissRate::total          inf                       # mshr miss rate for HardPFReq accesses (Ratio)
board.cache_hierarchy.l1_dcache.HardPFReq.avgMshrMissLatency::cache_hierarchy.l1_dcache.prefetcher  8720.962821                       # average HardPFReq mshr miss latency ((Tick/Count))
board.cache_hierarchy.l1_dcache.HardPFReq.avgMshrMissLatency::total  8720.962821                       # average HardPFReq mshr miss latency ((Tick/Count))
board.cache_hierarchy.l1_dcache.LockedRMWReadReq.hits::processor.cores.core.data            8                       # number of LockedRMWReadReq hits (Count)
board.cache_hierarchy.l1_dcache.LockedRMWReadReq.hits::total            8                       # number of LockedRMWReadReq hits (Count)
board.cache_hierarchy.l1_dcache.LockedRMWReadReq.misses::processor.cores.core.data            4                       # number of LockedRMWReadReq misses (Count)
board.cache_hierarchy.l1_dcache.LockedRMWReadReq.misses::total            4                       # number of LockedRMWReadReq misses (Count)
board.cache_hierarchy.l1_dcache.LockedRMWReadReq.missLatency::processor.cores.core.data       150849                       # number of LockedRMWReadReq miss ticks (Tick)
board.cache_hierarchy.l1_dcache.LockedRMWReadReq.missLatency::total       150849                       # number of LockedRMWReadReq miss ticks (Tick)
board.cache_hierarchy.l1_dcache.LockedRMWReadReq.accesses::processor.cores.core.data           12                       # number of LockedRMWReadReq accesses(hits+misses) (Count)
board.cache_hierarchy.l1_dcache.LockedRMWReadReq.accesses::total           12                       # number of LockedRMWReadReq accesses(hits+misses) (Count)
board.cache_hierarchy.l1_dcache.LockedRMWReadReq.missRate::processor.cores.core.data     0.333333                       # miss rate for LockedRMWReadReq accesses (Ratio)
board.cache_hierarchy.l1_dcache.LockedRMWReadReq.missRate::total     0.333333                       # miss rate for LockedRMWReadReq accesses (Ratio)
board.cache_hierarchy.l1_dcache.LockedRMWReadReq.avgMissLatency::processor.cores.core.data 37712.250000                       # average LockedRMWReadReq miss latency ((Tick/Count))
board.cache_hierarchy.l1_dcache.LockedRMWReadReq.avgMissLatency::total 37712.250000                       # average LockedRMWReadReq miss latency ((Tick/Count))
board.cache_hierarchy.l1_dcache.LockedRMWReadReq.mshrMisses::processor.cores.core.data            4                       # number of LockedRMWReadReq MSHR misses (Count)
board.cache_hierarchy.l1_dcache.LockedRMWReadReq.mshrMisses::total            4                       # number of LockedRMWReadReq MSHR misses (Count)
board.cache_hierarchy.l1_dcache.LockedRMWReadReq.mshrMissLatency::processor.cores.core.data       303030                       # number of LockedRMWReadReq MSHR miss ticks (Tick)
board.cache_hierarchy.l1_dcache.LockedRMWReadReq.mshrMissLatency::total       303030                       # number of LockedRMWReadReq MSHR miss ticks (Tick)
board.cache_hierarchy.l1_dcache.LockedRMWReadReq.mshrMissRate::processor.cores.core.data     0.333333                       # mshr miss rate for LockedRMWReadReq accesses (Ratio)
board.cache_hierarchy.l1_dcache.LockedRMWReadReq.mshrMissRate::total     0.333333                       # mshr miss rate for LockedRMWReadReq accesses (Ratio)
board.cache_hierarchy.l1_dcache.LockedRMWReadReq.avgMshrMissLatency::processor.cores.core.data 75757.500000                       # average LockedRMWReadReq mshr miss latency ((Tick/Count))
board.cache_hierarchy.l1_dcache.LockedRMWReadReq.avgMshrMissLatency::total 75757.500000                       # average LockedRMWReadReq mshr miss latency ((Tick/Count))
board.cache_hierarchy.l1_dcache.LockedRMWWriteReq.hits::processor.cores.core.data           12                       # number of LockedRMWWriteReq hits (Count)
board.cache_hierarchy.l1_dcache.LockedRMWWriteReq.hits::total           12                       # number of LockedRMWWriteReq hits (Count)
board.cache_hierarchy.l1_dcache.LockedRMWWriteReq.accesses::processor.cores.core.data           12                       # number of LockedRMWWriteReq accesses(hits+misses) (Count)
board.cache_hierarchy.l1_dcache.LockedRMWWriteReq.accesses::total           12                       # number of LockedRMWWriteReq accesses(hits+misses) (Count)
board.cache_hierarchy.l1_dcache.ReadReq.hits::processor.cores.core.data     32945678                       # number of ReadReq hits (Count)
board.cache_hierarchy.l1_dcache.ReadReq.hits::total     32945678                       # number of ReadReq hits (Count)
board.cache_hierarchy.l1_dcache.ReadReq.misses::processor.cores.core.data     18298031                       # number of ReadReq misses (Count)
board.cache_hierarchy.l1_dcache.ReadReq.misses::total     18298031                       # number of ReadReq misses (Count)
board.cache_hierarchy.l1_dcache.ReadReq.missLatency::processor.cores.core.data  94120617834                       # number of ReadReq miss ticks (Tick)
board.cache_hierarchy.l1_dcache.ReadReq.missLatency::total  94120617834                       # number of ReadReq miss ticks (Tick)
board.cache_hierarchy.l1_dcache.ReadReq.accesses::processor.cores.core.data     51243709                       # number of ReadReq accesses(hits+misses) (Count)
board.cache_hierarchy.l1_dcache.ReadReq.accesses::total     51243709                       # number of ReadReq accesses(hits+misses) (Count)
board.cache_hierarchy.l1_dcache.ReadReq.missRate::processor.cores.core.data     0.357079                       # miss rate for ReadReq accesses (Ratio)
board.cache_hierarchy.l1_dcache.ReadReq.missRate::total     0.357079                       # miss rate for ReadReq accesses (Ratio)
board.cache_hierarchy.l1_dcache.ReadReq.avgMissLatency::processor.cores.core.data  5143.756606                       # average ReadReq miss latency ((Tick/Count))
board.cache_hierarchy.l1_dcache.ReadReq.avgMissLatency::total  5143.756606                       # average ReadReq miss latency ((Tick/Count))
board.cache_hierarchy.l1_dcache.ReadReq.mshrHits::processor.cores.core.data          456                       # number of ReadReq MSHR hits (Count)
board.cache_hierarchy.l1_dcache.ReadReq.mshrHits::total          456                       # number of ReadReq MSHR hits (Count)
board.cache_hierarchy.l1_dcache.ReadReq.mshrMisses::processor.cores.core.data     18297575                       # number of ReadReq MSHR misses (Count)
board.cache_hierarchy.l1_dcache.ReadReq.mshrMisses::total     18297575                       # number of ReadReq MSHR misses (Count)
board.cache_hierarchy.l1_dcache.ReadReq.mshrMissLatency::processor.cores.core.data  88013096136                       # number of ReadReq MSHR miss ticks (Tick)
board.cache_hierarchy.l1_dcache.ReadReq.mshrMissLatency::total  88013096136                       # number of ReadReq MSHR miss ticks (Tick)
board.cache_hierarchy.l1_dcache.ReadReq.mshrMissRate::processor.cores.core.data     0.357070                       # mshr miss rate for ReadReq accesses (Ratio)
board.cache_hierarchy.l1_dcache.ReadReq.mshrMissRate::total     0.357070                       # mshr miss rate for ReadReq accesses (Ratio)
board.cache_hierarchy.l1_dcache.ReadReq.avgMshrMissLatency::processor.cores.core.data  4810.096209                       # average ReadReq mshr miss latency ((Tick/Count))
board.cache_hierarchy.l1_dcache.ReadReq.avgMshrMissLatency::total  4810.096209                       # average ReadReq mshr miss latency ((Tick/Count))
board.cache_hierarchy.l1_dcache.WriteReq.hits::processor.cores.core.data     16403935                       # number of WriteReq hits (Count)
board.cache_hierarchy.l1_dcache.WriteReq.hits::total     16403935                       # number of WriteReq hits (Count)
board.cache_hierarchy.l1_dcache.WriteReq.misses::processor.cores.core.data       528682                       # number of WriteReq misses (Count)
board.cache_hierarchy.l1_dcache.WriteReq.misses::total       528682                       # number of WriteReq misses (Count)
board.cache_hierarchy.l1_dcache.WriteReq.missLatency::processor.cores.core.data   3676666986                       # number of WriteReq miss ticks (Tick)
board.cache_hierarchy.l1_dcache.WriteReq.missLatency::total   3676666986                       # number of WriteReq miss ticks (Tick)
board.cache_hierarchy.l1_dcache.WriteReq.accesses::processor.cores.core.data     16932617                       # number of WriteReq accesses(hits+misses) (Count)
board.cache_hierarchy.l1_dcache.WriteReq.accesses::total     16932617                       # number of WriteReq accesses(hits+misses) (Count)
board.cache_hierarchy.l1_dcache.WriteReq.missRate::processor.cores.core.data     0.031223                       # miss rate for WriteReq accesses (Ratio)
board.cache_hierarchy.l1_dcache.WriteReq.missRate::total     0.031223                       # miss rate for WriteReq accesses (Ratio)
board.cache_hierarchy.l1_dcache.WriteReq.avgMissLatency::processor.cores.core.data  6954.401674                       # average WriteReq miss latency ((Tick/Count))
board.cache_hierarchy.l1_dcache.WriteReq.avgMissLatency::total  6954.401674                       # average WriteReq miss latency ((Tick/Count))
board.cache_hierarchy.l1_dcache.WriteReq.mshrHits::processor.cores.core.data         2220                       # number of WriteReq MSHR hits (Count)
board.cache_hierarchy.l1_dcache.WriteReq.mshrHits::total         2220                       # number of WriteReq MSHR hits (Count)
board.cache_hierarchy.l1_dcache.WriteReq.mshrMisses::processor.cores.core.data       526462                       # number of WriteReq MSHR misses (Count)
board.cache_hierarchy.l1_dcache.WriteReq.mshrMisses::total       526462                       # number of WriteReq MSHR misses (Count)
board.cache_hierarchy.l1_dcache.WriteReq.mshrMissLatency::processor.cores.core.data   3467174355                       # number of WriteReq MSHR miss ticks (Tick)
board.cache_hierarchy.l1_dcache.WriteReq.mshrMissLatency::total   3467174355                       # number of WriteReq MSHR miss ticks (Tick)
board.cache_hierarchy.l1_dcache.WriteReq.mshrMissRate::processor.cores.core.data     0.031092                       # mshr miss rate for WriteReq accesses (Ratio)
board.cache_hierarchy.l1_dcache.WriteReq.mshrMissRate::total     0.031092                       # mshr miss rate for WriteReq accesses (Ratio)
board.cache_hierarchy.l1_dcache.WriteReq.avgMshrMissLatency::processor.cores.core.data  6585.801739                       # average WriteReq mshr miss latency ((Tick/Count))
board.cache_hierarchy.l1_dcache.WriteReq.avgMshrMissLatency::total  6585.801739                       # average WriteReq mshr miss latency ((Tick/Count))
board.cache_hierarchy.l1_dcache.power_state.pwrStateResidencyTicks::UNDEFINED 171715073706                       # Cumulative time (in ticks) in various power states (Tick)
board.cache_hierarchy.l1_dcache.prefetcher.demandMshrMisses     18824037                       # demands not covered by prefetchs (Count)
board.cache_hierarchy.l1_dcache.prefetcher.pfIssued      1414241                       # number of hwpf issued (Count)
board.cache_hierarchy.l1_dcache.prefetcher.pfUnused       703949                       # number of HardPF blocks evicted w/o reference (Count)
board.cache_hierarchy.l1_dcache.prefetcher.pfUseful       118834                       # number of useful prefetch (Count)
board.cache_hierarchy.l1_dcache.prefetcher.pfUsefulButMiss            0                       # number of hit on prefetch but cache block is not in an usable state (Count)
board.cache_hierarchy.l1_dcache.prefetcher.accuracy     0.084027                       # accuracy of the prefetcher (Count)
board.cache_hierarchy.l1_dcache.prefetcher.coverage     0.006273                       # coverage brought by this prefetcher (Count)
board.cache_hierarchy.l1_dcache.prefetcher.pfHitInCache       575263                       # number of prefetches hitting in cache (Count)
board.cache_hierarchy.l1_dcache.prefetcher.pfHitInMSHR        12605                       # number of prefetches hitting in a MSHR (Count)
board.cache_hierarchy.l1_dcache.prefetcher.pfHitInWB          908                       # number of prefetches hit in the Write Buffer (Count)
board.cache_hierarchy.l1_dcache.prefetcher.pfLate       588776                       # number of late prefetches (hitting in cache, MSHR or WB) (Count)
board.cache_hierarchy.l1_dcache.prefetcher.pfIdentified      1414241                       # number of prefetch candidates identified (Count)
board.cache_hierarchy.l1_dcache.prefetcher.pfBufferHit            0                       # number of redundant prefetches already in prefetch queue (Count)
board.cache_hierarchy.l1_dcache.prefetcher.pfInCache            0                       # number of redundant prefetches already in cache/mshr dropped (Count)
board.cache_hierarchy.l1_dcache.prefetcher.pfRemovedDemand            0                       # number of prefetches dropped due to a demand for the same address (Count)
board.cache_hierarchy.l1_dcache.prefetcher.pfRemovedFull            0                       # number of prefetches dropped due to prefetch queue size (Count)
board.cache_hierarchy.l1_dcache.prefetcher.pfSpanPage       102403                       # number of prefetches that crossed the page (Count)
board.cache_hierarchy.l1_dcache.prefetcher.pfUsefulSpanPage        33476                       # number of prefetches that is useful and crossed the page (Count)
board.cache_hierarchy.l1_dcache.prefetcher.power_state.pwrStateResidencyTicks::UNDEFINED 171715073706                       # Cumulative time (in ticks) in various power states (Tick)
board.cache_hierarchy.l1_dcache.tags.tagsInUse    63.996715                       # Average ticks per tags in use ((Tick/Count))
board.cache_hierarchy.l1_dcache.tags.totalRefs     68999139                       # Total number of references to valid blocks. (Count)
board.cache_hierarchy.l1_dcache.tags.sampledRefs     19649506                       # Sample count of references to valid blocks. (Count)
board.cache_hierarchy.l1_dcache.tags.avgRefs     3.511495                       # Average number of references to valid blocks. ((Count/Count))
board.cache_hierarchy.l1_dcache.tags.warmupTick       138195                       # The tick when the warmup percentage was hit. (Tick)
board.cache_hierarchy.l1_dcache.tags.occupancies::cache_hierarchy.l1_dcache.prefetcher     3.173928                       # Average occupied blocks per tick, per requestor ((Count/Tick))
board.cache_hierarchy.l1_dcache.tags.occupancies::processor.cores.core.data    60.822788                       # Average occupied blocks per tick, per requestor ((Count/Tick))
board.cache_hierarchy.l1_dcache.tags.avgOccs::cache_hierarchy.l1_dcache.prefetcher     0.049593                       # Average percentage of cache occupancy ((Ratio/Tick))
board.cache_hierarchy.l1_dcache.tags.avgOccs::processor.cores.core.data     0.950356                       # Average percentage of cache occupancy ((Ratio/Tick))
board.cache_hierarchy.l1_dcache.tags.avgOccs::total     0.999949                       # Average percentage of cache occupancy ((Ratio/Tick))
board.cache_hierarchy.l1_dcache.tags.occupanciesTaskId::1022            6                       # Occupied blocks per task id (Count)
board.cache_hierarchy.l1_dcache.tags.occupanciesTaskId::1024           58                       # Occupied blocks per task id (Count)
board.cache_hierarchy.l1_dcache.tags.ageTaskId_1022::1            6                       # Occupied blocks per task id, per block age (Count)
board.cache_hierarchy.l1_dcache.tags.ageTaskId_1024::0           41                       # Occupied blocks per task id, per block age (Count)
board.cache_hierarchy.l1_dcache.tags.ageTaskId_1024::1           17                       # Occupied blocks per task id, per block age (Count)
board.cache_hierarchy.l1_dcache.tags.ratioOccsTaskId::1022     0.093750                       # Ratio of occupied blocks and all blocks, per task id (Ratio)
board.cache_hierarchy.l1_dcache.tags.ratioOccsTaskId::1024     0.906250                       # Ratio of occupied blocks and all blocks, per task id (Ratio)
board.cache_hierarchy.l1_dcache.tags.tagAccesses     87825856                       # Number of tag accesses (Count)
board.cache_hierarchy.l1_dcache.tags.dataAccesses     87825856                       # Number of data accesses (Count)
board.cache_hierarchy.l1_dcache.tags.power_state.pwrStateResidencyTicks::UNDEFINED 171715073706                       # Cumulative time (in ticks) in various power states (Tick)
board.cache_hierarchy.l1_icache.demandHits::processor.cores.core.inst    172214265                       # number of demand (read+write) hits (Count)
board.cache_hierarchy.l1_icache.demandHits::total    172214265                       # number of demand (read+write) hits (Count)
board.cache_hierarchy.l1_icache.overallHits::processor.cores.core.inst    172214265                       # number of overall hits (Count)
board.cache_hierarchy.l1_icache.overallHits::total    172214265                       # number of overall hits (Count)
board.cache_hierarchy.l1_icache.demandMisses::processor.cores.core.inst        14936                       # number of demand (read+write) misses (Count)
board.cache_hierarchy.l1_icache.demandMisses::total        14936                       # number of demand (read+write) misses (Count)
board.cache_hierarchy.l1_icache.overallMisses::processor.cores.core.inst        14936                       # number of overall misses (Count)
board.cache_hierarchy.l1_icache.overallMisses::total        14936                       # number of overall misses (Count)
board.cache_hierarchy.l1_icache.demandMissLatency::processor.cores.core.inst    133164036                       # number of demand (read+write) miss ticks (Tick)
board.cache_hierarchy.l1_icache.demandMissLatency::total    133164036                       # number of demand (read+write) miss ticks (Tick)
board.cache_hierarchy.l1_icache.overallMissLatency::processor.cores.core.inst    133164036                       # number of overall miss ticks (Tick)
board.cache_hierarchy.l1_icache.overallMissLatency::total    133164036                       # number of overall miss ticks (Tick)
board.cache_hierarchy.l1_icache.demandAccesses::processor.cores.core.inst    172229201                       # number of demand (read+write) accesses (Count)
board.cache_hierarchy.l1_icache.demandAccesses::total    172229201                       # number of demand (read+write) accesses (Count)
board.cache_hierarchy.l1_icache.overallAccesses::processor.cores.core.inst    172229201                       # number of overall (read+write) accesses (Count)
board.cache_hierarchy.l1_icache.overallAccesses::total    172229201                       # number of overall (read+write) accesses (Count)
board.cache_hierarchy.l1_icache.demandMissRate::processor.cores.core.inst     0.000087                       # miss rate for demand accesses (Ratio)
board.cache_hierarchy.l1_icache.demandMissRate::total     0.000087                       # miss rate for demand accesses (Ratio)
board.cache_hierarchy.l1_icache.overallMissRate::processor.cores.core.inst     0.000087                       # miss rate for overall accesses (Ratio)
board.cache_hierarchy.l1_icache.overallMissRate::total     0.000087                       # miss rate for overall accesses (Ratio)
board.cache_hierarchy.l1_icache.demandAvgMissLatency::processor.cores.core.inst  8915.642475                       # average overall miss latency in ticks ((Tick/Count))
board.cache_hierarchy.l1_icache.demandAvgMissLatency::total  8915.642475                       # average overall miss latency in ticks ((Tick/Count))
board.cache_hierarchy.l1_icache.overallAvgMissLatency::processor.cores.core.inst  8915.642475                       # average overall miss latency ((Tick/Count))
board.cache_hierarchy.l1_icache.overallAvgMissLatency::total  8915.642475                       # average overall miss latency ((Tick/Count))
board.cache_hierarchy.l1_icache.blockedCycles::no_mshrs            0                       # number of cycles access was blocked (Cycle)
board.cache_hierarchy.l1_icache.blockedCycles::no_targets            0                       # number of cycles access was blocked (Cycle)
board.cache_hierarchy.l1_icache.blockedCauses::no_mshrs            0                       # number of times access was blocked (Count)
board.cache_hierarchy.l1_icache.blockedCauses::no_targets            0                       # number of times access was blocked (Count)
board.cache_hierarchy.l1_icache.avgBlocked::no_mshrs          nan                       # average number of cycles each access was blocked ((Cycle/Count))
board.cache_hierarchy.l1_icache.avgBlocked::no_targets          nan                       # average number of cycles each access was blocked ((Cycle/Count))
board.cache_hierarchy.l1_icache.demandMshrMisses::processor.cores.core.inst        14936                       # number of demand (read+write) MSHR misses (Count)
board.cache_hierarchy.l1_icache.demandMshrMisses::total        14936                       # number of demand (read+write) MSHR misses (Count)
board.cache_hierarchy.l1_icache.overallMshrMisses::processor.cores.core.inst        14936                       # number of overall MSHR misses (Count)
board.cache_hierarchy.l1_icache.overallMshrMisses::total        14936                       # number of overall MSHR misses (Count)
board.cache_hierarchy.l1_icache.demandMshrMissLatency::processor.cores.core.inst    128190348                       # number of demand (read+write) MSHR miss ticks (Tick)
board.cache_hierarchy.l1_icache.demandMshrMissLatency::total    128190348                       # number of demand (read+write) MSHR miss ticks (Tick)
board.cache_hierarchy.l1_icache.overallMshrMissLatency::processor.cores.core.inst    128190348                       # number of overall MSHR miss ticks (Tick)
board.cache_hierarchy.l1_icache.overallMshrMissLatency::total    128190348                       # number of overall MSHR miss ticks (Tick)
board.cache_hierarchy.l1_icache.demandMshrMissRate::processor.cores.core.inst     0.000087                       # mshr miss ratio for demand accesses (Ratio)
board.cache_hierarchy.l1_icache.demandMshrMissRate::total     0.000087                       # mshr miss ratio for demand accesses (Ratio)
board.cache_hierarchy.l1_icache.overallMshrMissRate::processor.cores.core.inst     0.000087                       # mshr miss ratio for overall accesses (Ratio)
board.cache_hierarchy.l1_icache.overallMshrMissRate::total     0.000087                       # mshr miss ratio for overall accesses (Ratio)
board.cache_hierarchy.l1_icache.demandAvgMshrMissLatency::processor.cores.core.inst  8582.642475                       # average overall mshr miss latency ((Tick/Count))
board.cache_hierarchy.l1_icache.demandAvgMshrMissLatency::total  8582.642475                       # average overall mshr miss latency ((Tick/Count))
board.cache_hierarchy.l1_icache.overallAvgMshrMissLatency::processor.cores.core.inst  8582.642475                       # average overall mshr miss latency ((Tick/Count))
board.cache_hierarchy.l1_icache.overallAvgMshrMissLatency::total  8582.642475                       # average overall mshr miss latency ((Tick/Count))
board.cache_hierarchy.l1_icache.replacements        14872                       # number of replacements (Count)
board.cache_hierarchy.l1_icache.ReadReq.hits::processor.cores.core.inst    172214265                       # number of ReadReq hits (Count)
board.cache_hierarchy.l1_icache.ReadReq.hits::total    172214265                       # number of ReadReq hits (Count)
board.cache_hierarchy.l1_icache.ReadReq.misses::processor.cores.core.inst        14936                       # number of ReadReq misses (Count)
board.cache_hierarchy.l1_icache.ReadReq.misses::total        14936                       # number of ReadReq misses (Count)
board.cache_hierarchy.l1_icache.ReadReq.missLatency::processor.cores.core.inst    133164036                       # number of ReadReq miss ticks (Tick)
board.cache_hierarchy.l1_icache.ReadReq.missLatency::total    133164036                       # number of ReadReq miss ticks (Tick)
board.cache_hierarchy.l1_icache.ReadReq.accesses::processor.cores.core.inst    172229201                       # number of ReadReq accesses(hits+misses) (Count)
board.cache_hierarchy.l1_icache.ReadReq.accesses::total    172229201                       # number of ReadReq accesses(hits+misses) (Count)
board.cache_hierarchy.l1_icache.ReadReq.missRate::processor.cores.core.inst     0.000087                       # miss rate for ReadReq accesses (Ratio)
board.cache_hierarchy.l1_icache.ReadReq.missRate::total     0.000087                       # miss rate for ReadReq accesses (Ratio)
board.cache_hierarchy.l1_icache.ReadReq.avgMissLatency::processor.cores.core.inst  8915.642475                       # average ReadReq miss latency ((Tick/Count))
board.cache_hierarchy.l1_icache.ReadReq.avgMissLatency::total  8915.642475                       # average ReadReq miss latency ((Tick/Count))
board.cache_hierarchy.l1_icache.ReadReq.mshrMisses::processor.cores.core.inst        14936                       # number of ReadReq MSHR misses (Count)
board.cache_hierarchy.l1_icache.ReadReq.mshrMisses::total        14936                       # number of ReadReq MSHR misses (Count)
board.cache_hierarchy.l1_icache.ReadReq.mshrMissLatency::processor.cores.core.inst    128190348                       # number of ReadReq MSHR miss ticks (Tick)
board.cache_hierarchy.l1_icache.ReadReq.mshrMissLatency::total    128190348                       # number of ReadReq MSHR miss ticks (Tick)
board.cache_hierarchy.l1_icache.ReadReq.mshrMissRate::processor.cores.core.inst     0.000087                       # mshr miss rate for ReadReq accesses (Ratio)
board.cache_hierarchy.l1_icache.ReadReq.mshrMissRate::total     0.000087                       # mshr miss rate for ReadReq accesses (Ratio)
board.cache_hierarchy.l1_icache.ReadReq.avgMshrMissLatency::processor.cores.core.inst  8582.642475                       # average ReadReq mshr miss latency ((Tick/Count))
board.cache_hierarchy.l1_icache.ReadReq.avgMshrMissLatency::total  8582.642475                       # average ReadReq mshr miss latency ((Tick/Count))
board.cache_hierarchy.l1_icache.power_state.pwrStateResidencyTicks::UNDEFINED 171715073706                       # Cumulative time (in ticks) in various power states (Tick)
board.cache_hierarchy.l1_icache.prefetcher.demandMshrMisses        14936                       # demands not covered by prefetchs (Count)
board.cache_hierarchy.l1_icache.prefetcher.pfIssued            0                       # number of hwpf issued (Count)
board.cache_hierarchy.l1_icache.prefetcher.pfUseful            0                       # number of useful prefetch (Count)
board.cache_hierarchy.l1_icache.prefetcher.pfUsefulButMiss            0                       # number of hit on prefetch but cache block is not in an usable state (Count)
board.cache_hierarchy.l1_icache.prefetcher.accuracy          nan                       # accuracy of the prefetcher (Count)
board.cache_hierarchy.l1_icache.prefetcher.coverage            0                       # coverage brought by this prefetcher (Count)
board.cache_hierarchy.l1_icache.prefetcher.pfHitInCache            0                       # number of prefetches hitting in cache (Count)
board.cache_hierarchy.l1_icache.prefetcher.pfHitInMSHR            0                       # number of prefetches hitting in a MSHR (Count)
board.cache_hierarchy.l1_icache.prefetcher.pfHitInWB            0                       # number of prefetches hit in the Write Buffer (Count)
board.cache_hierarchy.l1_icache.prefetcher.pfLate            0                       # number of late prefetches (hitting in cache, MSHR or WB) (Count)
board.cache_hierarchy.l1_icache.prefetcher.pfIdentified            0                       # number of prefetch candidates identified (Count)
board.cache_hierarchy.l1_icache.prefetcher.pfBufferHit            0                       # number of redundant prefetches already in prefetch queue (Count)
board.cache_hierarchy.l1_icache.prefetcher.pfInCache            0                       # number of redundant prefetches already in cache/mshr dropped (Count)
board.cache_hierarchy.l1_icache.prefetcher.pfRemovedDemand            0                       # number of prefetches dropped due to a demand for the same address (Count)
board.cache_hierarchy.l1_icache.prefetcher.pfRemovedFull            0                       # number of prefetches dropped due to prefetch queue size (Count)
board.cache_hierarchy.l1_icache.prefetcher.pfSpanPage            0                       # number of prefetches that crossed the page (Count)
board.cache_hierarchy.l1_icache.prefetcher.pfUsefulSpanPage            0                       # number of prefetches that is useful and crossed the page (Count)
board.cache_hierarchy.l1_icache.prefetcher.power_state.pwrStateResidencyTicks::UNDEFINED 171715073706                       # Cumulative time (in ticks) in various power states (Tick)
board.cache_hierarchy.l1_icache.tags.tagsInUse    63.997733                       # Average ticks per tags in use ((Tick/Count))
board.cache_hierarchy.l1_icache.tags.totalRefs    172229201                       # Total number of references to valid blocks. (Count)
board.cache_hierarchy.l1_icache.tags.sampledRefs        14936                       # Sample count of references to valid blocks. (Count)
board.cache_hierarchy.l1_icache.tags.avgRefs 11531.146291                       # Average number of references to valid blocks. ((Count/Count))
board.cache_hierarchy.l1_icache.tags.warmupTick        73260                       # The tick when the warmup percentage was hit. (Tick)
board.cache_hierarchy.l1_icache.tags.occupancies::processor.cores.core.inst    63.997733                       # Average occupied blocks per tick, per requestor ((Count/Tick))
board.cache_hierarchy.l1_icache.tags.avgOccs::processor.cores.core.inst     0.999965                       # Average percentage of cache occupancy ((Ratio/Tick))
board.cache_hierarchy.l1_icache.tags.avgOccs::total     0.999965                       # Average percentage of cache occupancy ((Ratio/Tick))
board.cache_hierarchy.l1_icache.tags.occupanciesTaskId::1024           64                       # Occupied blocks per task id (Count)
board.cache_hierarchy.l1_icache.tags.ageTaskId_1024::0           49                       # Occupied blocks per task id, per block age (Count)
board.cache_hierarchy.l1_icache.tags.ageTaskId_1024::1            3                       # Occupied blocks per task id, per block age (Count)
board.cache_hierarchy.l1_icache.tags.ageTaskId_1024::2            4                       # Occupied blocks per task id, per block age (Count)
board.cache_hierarchy.l1_icache.tags.ageTaskId_1024::4            8                       # Occupied blocks per task id, per block age (Count)
board.cache_hierarchy.l1_icache.tags.ratioOccsTaskId::1024            1                       # Ratio of occupied blocks and all blocks, per task id (Ratio)
board.cache_hierarchy.l1_icache.tags.tagAccesses    172244137                       # Number of tag accesses (Count)
board.cache_hierarchy.l1_icache.tags.dataAccesses    172244137                       # Number of data accesses (Count)
board.cache_hierarchy.l1_icache.tags.power_state.pwrStateResidencyTicks::UNDEFINED 171715073706                       # Cumulative time (in ticks) in various power states (Tick)
board.cache_hierarchy.l2_cache.demandHits::cache_hierarchy.l1_dcache.prefetcher       791426                       # number of demand (read+write) hits (Count)
board.cache_hierarchy.l2_cache.demandHits::processor.cores.core.inst        13740                       # number of demand (read+write) hits (Count)
board.cache_hierarchy.l2_cache.demandHits::processor.cores.core.data     18704612                       # number of demand (read+write) hits (Count)
board.cache_hierarchy.l2_cache.demandHits::total     19509778                       # number of demand (read+write) hits (Count)
board.cache_hierarchy.l2_cache.overallHits::cache_hierarchy.l1_dcache.prefetcher       791426                       # number of overall hits (Count)
board.cache_hierarchy.l2_cache.overallHits::processor.cores.core.inst        13740                       # number of overall hits (Count)
board.cache_hierarchy.l2_cache.overallHits::processor.cores.core.data     18704612                       # number of overall hits (Count)
board.cache_hierarchy.l2_cache.overallHits::total     19509778                       # number of overall hits (Count)
board.cache_hierarchy.l2_cache.demandMisses::cache_hierarchy.l1_dcache.prefetcher        34039                       # number of demand (read+write) misses (Count)
board.cache_hierarchy.l2_cache.demandMisses::processor.cores.core.inst         1196                       # number of demand (read+write) misses (Count)
board.cache_hierarchy.l2_cache.demandMisses::processor.cores.core.data       119429                       # number of demand (read+write) misses (Count)
board.cache_hierarchy.l2_cache.demandMisses::total       154664                       # number of demand (read+write) misses (Count)
board.cache_hierarchy.l2_cache.overallMisses::cache_hierarchy.l1_dcache.prefetcher        34039                       # number of overall misses (Count)
board.cache_hierarchy.l2_cache.overallMisses::processor.cores.core.inst         1196                       # number of overall misses (Count)
board.cache_hierarchy.l2_cache.overallMisses::processor.cores.core.data       119429                       # number of overall misses (Count)
board.cache_hierarchy.l2_cache.overallMisses::total       154664                       # number of overall misses (Count)
board.cache_hierarchy.l2_cache.demandMissLatency::cache_hierarchy.l1_dcache.prefetcher   2767092280                       # number of demand (read+write) miss ticks (Tick)
board.cache_hierarchy.l2_cache.demandMissLatency::processor.cores.core.inst     67810122                       # number of demand (read+write) miss ticks (Tick)
board.cache_hierarchy.l2_cache.demandMissLatency::processor.cores.core.data   9209363085                       # number of demand (read+write) miss ticks (Tick)
board.cache_hierarchy.l2_cache.demandMissLatency::total  12044265487                       # number of demand (read+write) miss ticks (Tick)
board.cache_hierarchy.l2_cache.overallMissLatency::cache_hierarchy.l1_dcache.prefetcher   2767092280                       # number of overall miss ticks (Tick)
board.cache_hierarchy.l2_cache.overallMissLatency::processor.cores.core.inst     67810122                       # number of overall miss ticks (Tick)
board.cache_hierarchy.l2_cache.overallMissLatency::processor.cores.core.data   9209363085                       # number of overall miss ticks (Tick)
board.cache_hierarchy.l2_cache.overallMissLatency::total  12044265487                       # number of overall miss ticks (Tick)
board.cache_hierarchy.l2_cache.demandAccesses::cache_hierarchy.l1_dcache.prefetcher       825465                       # number of demand (read+write) accesses (Count)
board.cache_hierarchy.l2_cache.demandAccesses::processor.cores.core.inst        14936                       # number of demand (read+write) accesses (Count)
board.cache_hierarchy.l2_cache.demandAccesses::processor.cores.core.data     18824041                       # number of demand (read+write) accesses (Count)
board.cache_hierarchy.l2_cache.demandAccesses::total     19664442                       # number of demand (read+write) accesses (Count)
board.cache_hierarchy.l2_cache.overallAccesses::cache_hierarchy.l1_dcache.prefetcher       825465                       # number of overall (read+write) accesses (Count)
board.cache_hierarchy.l2_cache.overallAccesses::processor.cores.core.inst        14936                       # number of overall (read+write) accesses (Count)
board.cache_hierarchy.l2_cache.overallAccesses::processor.cores.core.data     18824041                       # number of overall (read+write) accesses (Count)
board.cache_hierarchy.l2_cache.overallAccesses::total     19664442                       # number of overall (read+write) accesses (Count)
board.cache_hierarchy.l2_cache.demandMissRate::cache_hierarchy.l1_dcache.prefetcher     0.041236                       # miss rate for demand accesses (Ratio)
board.cache_hierarchy.l2_cache.demandMissRate::processor.cores.core.inst     0.080075                       # miss rate for demand accesses (Ratio)
board.cache_hierarchy.l2_cache.demandMissRate::processor.cores.core.data     0.006344                       # miss rate for demand accesses (Ratio)
board.cache_hierarchy.l2_cache.demandMissRate::total     0.007865                       # miss rate for demand accesses (Ratio)
board.cache_hierarchy.l2_cache.overallMissRate::cache_hierarchy.l1_dcache.prefetcher     0.041236                       # miss rate for overall accesses (Ratio)
board.cache_hierarchy.l2_cache.overallMissRate::processor.cores.core.inst     0.080075                       # miss rate for overall accesses (Ratio)
board.cache_hierarchy.l2_cache.overallMissRate::processor.cores.core.data     0.006344                       # miss rate for overall accesses (Ratio)
board.cache_hierarchy.l2_cache.overallMissRate::total     0.007865                       # miss rate for overall accesses (Ratio)
board.cache_hierarchy.l2_cache.demandAvgMissLatency::cache_hierarchy.l1_dcache.prefetcher 81291.820559                       # average overall miss latency in ticks ((Tick/Count))
board.cache_hierarchy.l2_cache.demandAvgMissLatency::processor.cores.core.inst 56697.426421                       # average overall miss latency in ticks ((Tick/Count))
board.cache_hierarchy.l2_cache.demandAvgMissLatency::processor.cores.core.data 77111.615144                       # average overall miss latency in ticks ((Tick/Count))
board.cache_hierarchy.l2_cache.demandAvgMissLatency::total 77873.748817                       # average overall miss latency in ticks ((Tick/Count))
board.cache_hierarchy.l2_cache.overallAvgMissLatency::cache_hierarchy.l1_dcache.prefetcher 81291.820559                       # average overall miss latency ((Tick/Count))
board.cache_hierarchy.l2_cache.overallAvgMissLatency::processor.cores.core.inst 56697.426421                       # average overall miss latency ((Tick/Count))
board.cache_hierarchy.l2_cache.overallAvgMissLatency::processor.cores.core.data 77111.615144                       # average overall miss latency ((Tick/Count))
board.cache_hierarchy.l2_cache.overallAvgMissLatency::total 77873.748817                       # average overall miss latency ((Tick/Count))
board.cache_hierarchy.l2_cache.blockedCycles::no_mshrs            0                       # number of cycles access was blocked (Cycle)
board.cache_hierarchy.l2_cache.blockedCycles::no_targets            0                       # number of cycles access was blocked (Cycle)
board.cache_hierarchy.l2_cache.blockedCauses::no_mshrs            0                       # number of times access was blocked (Count)
board.cache_hierarchy.l2_cache.blockedCauses::no_targets            0                       # number of times access was blocked (Count)
board.cache_hierarchy.l2_cache.avgBlocked::no_mshrs          nan                       # average number of cycles each access was blocked ((Cycle/Count))
board.cache_hierarchy.l2_cache.avgBlocked::no_targets          nan                       # average number of cycles each access was blocked ((Cycle/Count))
board.cache_hierarchy.l2_cache.writebacks::writebacks        17795                       # number of writebacks (Count)
board.cache_hierarchy.l2_cache.writebacks::total        17795                       # number of writebacks (Count)
board.cache_hierarchy.l2_cache.demandMshrHits::cache_hierarchy.l1_dcache.prefetcher        16167                       # number of demand (read+write) MSHR hits (Count)
board.cache_hierarchy.l2_cache.demandMshrHits::processor.cores.core.data           60                       # number of demand (read+write) MSHR hits (Count)
board.cache_hierarchy.l2_cache.demandMshrHits::total        16227                       # number of demand (read+write) MSHR hits (Count)
board.cache_hierarchy.l2_cache.overallMshrHits::cache_hierarchy.l1_dcache.prefetcher        16167                       # number of overall MSHR hits (Count)
board.cache_hierarchy.l2_cache.overallMshrHits::processor.cores.core.data           60                       # number of overall MSHR hits (Count)
board.cache_hierarchy.l2_cache.overallMshrHits::total        16227                       # number of overall MSHR hits (Count)
board.cache_hierarchy.l2_cache.demandMshrMisses::cache_hierarchy.l1_dcache.prefetcher        17872                       # number of demand (read+write) MSHR misses (Count)
board.cache_hierarchy.l2_cache.demandMshrMisses::processor.cores.core.inst         1196                       # number of demand (read+write) MSHR misses (Count)
board.cache_hierarchy.l2_cache.demandMshrMisses::processor.cores.core.data       119369                       # number of demand (read+write) MSHR misses (Count)
board.cache_hierarchy.l2_cache.demandMshrMisses::total       138437                       # number of demand (read+write) MSHR misses (Count)
board.cache_hierarchy.l2_cache.overallMshrMisses::cache_hierarchy.l1_dcache.prefetcher        17872                       # number of overall MSHR misses (Count)
board.cache_hierarchy.l2_cache.overallMshrMisses::cache_hierarchy.l2_cache.prefetcher        64829                       # number of overall MSHR misses (Count)
board.cache_hierarchy.l2_cache.overallMshrMisses::processor.cores.core.inst         1196                       # number of overall MSHR misses (Count)
board.cache_hierarchy.l2_cache.overallMshrMisses::processor.cores.core.data       119369                       # number of overall MSHR misses (Count)
board.cache_hierarchy.l2_cache.overallMshrMisses::total       203266                       # number of overall MSHR misses (Count)
board.cache_hierarchy.l2_cache.demandMshrMissLatency::cache_hierarchy.l1_dcache.prefetcher   1560204843                       # number of demand (read+write) MSHR miss ticks (Tick)
board.cache_hierarchy.l2_cache.demandMshrMissLatency::processor.cores.core.inst     63827442                       # number of demand (read+write) MSHR miss ticks (Tick)
board.cache_hierarchy.l2_cache.demandMshrMissLatency::processor.cores.core.data   8808716133                       # number of demand (read+write) MSHR miss ticks (Tick)
board.cache_hierarchy.l2_cache.demandMshrMissLatency::total  10432748418                       # number of demand (read+write) MSHR miss ticks (Tick)
board.cache_hierarchy.l2_cache.overallMshrMissLatency::cache_hierarchy.l1_dcache.prefetcher   1560204843                       # number of overall MSHR miss ticks (Tick)
board.cache_hierarchy.l2_cache.overallMshrMissLatency::cache_hierarchy.l2_cache.prefetcher   4107008526                       # number of overall MSHR miss ticks (Tick)
board.cache_hierarchy.l2_cache.overallMshrMissLatency::processor.cores.core.inst     63827442                       # number of overall MSHR miss ticks (Tick)
board.cache_hierarchy.l2_cache.overallMshrMissLatency::processor.cores.core.data   8808716133                       # number of overall MSHR miss ticks (Tick)
board.cache_hierarchy.l2_cache.overallMshrMissLatency::total  14539756944                       # number of overall MSHR miss ticks (Tick)
board.cache_hierarchy.l2_cache.demandMshrMissRate::cache_hierarchy.l1_dcache.prefetcher     0.021651                       # mshr miss ratio for demand accesses (Ratio)
board.cache_hierarchy.l2_cache.demandMshrMissRate::processor.cores.core.inst     0.080075                       # mshr miss ratio for demand accesses (Ratio)
board.cache_hierarchy.l2_cache.demandMshrMissRate::processor.cores.core.data     0.006341                       # mshr miss ratio for demand accesses (Ratio)
board.cache_hierarchy.l2_cache.demandMshrMissRate::total     0.007040                       # mshr miss ratio for demand accesses (Ratio)
board.cache_hierarchy.l2_cache.overallMshrMissRate::cache_hierarchy.l1_dcache.prefetcher     0.021651                       # mshr miss ratio for overall accesses (Ratio)
board.cache_hierarchy.l2_cache.overallMshrMissRate::cache_hierarchy.l2_cache.prefetcher          inf                       # mshr miss ratio for overall accesses (Ratio)
board.cache_hierarchy.l2_cache.overallMshrMissRate::processor.cores.core.inst     0.080075                       # mshr miss ratio for overall accesses (Ratio)
board.cache_hierarchy.l2_cache.overallMshrMissRate::processor.cores.core.data     0.006341                       # mshr miss ratio for overall accesses (Ratio)
board.cache_hierarchy.l2_cache.overallMshrMissRate::total     0.010337                       # mshr miss ratio for overall accesses (Ratio)
board.cache_hierarchy.l2_cache.demandAvgMshrMissLatency::cache_hierarchy.l1_dcache.prefetcher 87298.838574                       # average overall mshr miss latency ((Tick/Count))
board.cache_hierarchy.l2_cache.demandAvgMshrMissLatency::processor.cores.core.inst 53367.426421                       # average overall mshr miss latency ((Tick/Count))
board.cache_hierarchy.l2_cache.demandAvgMshrMissLatency::processor.cores.core.data 73794.001231                       # average overall mshr miss latency ((Tick/Count))
board.cache_hierarchy.l2_cache.demandAvgMshrMissLatency::total 75360.983104                       # average overall mshr miss latency ((Tick/Count))
board.cache_hierarchy.l2_cache.overallAvgMshrMissLatency::cache_hierarchy.l1_dcache.prefetcher 87298.838574                       # average overall mshr miss latency ((Tick/Count))
board.cache_hierarchy.l2_cache.overallAvgMshrMissLatency::cache_hierarchy.l2_cache.prefetcher 63351.409493                       # average overall mshr miss latency ((Tick/Count))
board.cache_hierarchy.l2_cache.overallAvgMshrMissLatency::processor.cores.core.inst 53367.426421                       # average overall mshr miss latency ((Tick/Count))
board.cache_hierarchy.l2_cache.overallAvgMshrMissLatency::processor.cores.core.data 73794.001231                       # average overall mshr miss latency ((Tick/Count))
board.cache_hierarchy.l2_cache.overallAvgMshrMissLatency::total 71530.688576                       # average overall mshr miss latency ((Tick/Count))
board.cache_hierarchy.l2_cache.replacements       191498                       # number of replacements (Count)
board.cache_hierarchy.l2_cache.CleanEvict.mshrMisses::writebacks        99596                       # number of CleanEvict MSHR misses (Count)
board.cache_hierarchy.l2_cache.CleanEvict.mshrMisses::total        99596                       # number of CleanEvict MSHR misses (Count)
board.cache_hierarchy.l2_cache.CleanEvict.mshrMissRate::writebacks          inf                       # mshr miss rate for CleanEvict accesses (Ratio)
board.cache_hierarchy.l2_cache.CleanEvict.mshrMissRate::total          inf                       # mshr miss rate for CleanEvict accesses (Ratio)
board.cache_hierarchy.l2_cache.HardPFReq.mshrMisses::cache_hierarchy.l2_cache.prefetcher        64829                       # number of HardPFReq MSHR misses (Count)
board.cache_hierarchy.l2_cache.HardPFReq.mshrMisses::total        64829                       # number of HardPFReq MSHR misses (Count)
board.cache_hierarchy.l2_cache.HardPFReq.mshrMissLatency::cache_hierarchy.l2_cache.prefetcher   4107008526                       # number of HardPFReq MSHR miss ticks (Tick)
board.cache_hierarchy.l2_cache.HardPFReq.mshrMissLatency::total   4107008526                       # number of HardPFReq MSHR miss ticks (Tick)
board.cache_hierarchy.l2_cache.HardPFReq.mshrMissRate::cache_hierarchy.l2_cache.prefetcher          inf                       # mshr miss rate for HardPFReq accesses (Ratio)
board.cache_hierarchy.l2_cache.HardPFReq.mshrMissRate::total          inf                       # mshr miss rate for HardPFReq accesses (Ratio)
board.cache_hierarchy.l2_cache.HardPFReq.avgMshrMissLatency::cache_hierarchy.l2_cache.prefetcher 63351.409493                       # average HardPFReq mshr miss latency ((Tick/Count))
board.cache_hierarchy.l2_cache.HardPFReq.avgMshrMissLatency::total 63351.409493                       # average HardPFReq mshr miss latency ((Tick/Count))
board.cache_hierarchy.l2_cache.ReadExReq.hits::processor.cores.core.data       524924                       # number of ReadExReq hits (Count)
board.cache_hierarchy.l2_cache.ReadExReq.hits::total       524924                       # number of ReadExReq hits (Count)
board.cache_hierarchy.l2_cache.ReadExReq.misses::processor.cores.core.data         1542                       # number of ReadExReq misses (Count)
board.cache_hierarchy.l2_cache.ReadExReq.misses::total         1542                       # number of ReadExReq misses (Count)
board.cache_hierarchy.l2_cache.ReadExReq.missLatency::processor.cores.core.data    135228303                       # number of ReadExReq miss ticks (Tick)
board.cache_hierarchy.l2_cache.ReadExReq.missLatency::total    135228303                       # number of ReadExReq miss ticks (Tick)
board.cache_hierarchy.l2_cache.ReadExReq.accesses::processor.cores.core.data       526466                       # number of ReadExReq accesses(hits+misses) (Count)
board.cache_hierarchy.l2_cache.ReadExReq.accesses::total       526466                       # number of ReadExReq accesses(hits+misses) (Count)
board.cache_hierarchy.l2_cache.ReadExReq.missRate::processor.cores.core.data     0.002929                       # miss rate for ReadExReq accesses (Ratio)
board.cache_hierarchy.l2_cache.ReadExReq.missRate::total     0.002929                       # miss rate for ReadExReq accesses (Ratio)
board.cache_hierarchy.l2_cache.ReadExReq.avgMissLatency::processor.cores.core.data 87696.694553                       # average ReadExReq miss latency ((Tick/Count))
board.cache_hierarchy.l2_cache.ReadExReq.avgMissLatency::total 87696.694553                       # average ReadExReq miss latency ((Tick/Count))
board.cache_hierarchy.l2_cache.ReadExReq.mshrMisses::processor.cores.core.data         1542                       # number of ReadExReq MSHR misses (Count)
board.cache_hierarchy.l2_cache.ReadExReq.mshrMisses::total         1542                       # number of ReadExReq MSHR misses (Count)
board.cache_hierarchy.l2_cache.ReadExReq.mshrMissLatency::processor.cores.core.data    130093443                       # number of ReadExReq MSHR miss ticks (Tick)
board.cache_hierarchy.l2_cache.ReadExReq.mshrMissLatency::total    130093443                       # number of ReadExReq MSHR miss ticks (Tick)
board.cache_hierarchy.l2_cache.ReadExReq.mshrMissRate::processor.cores.core.data     0.002929                       # mshr miss rate for ReadExReq accesses (Ratio)
board.cache_hierarchy.l2_cache.ReadExReq.mshrMissRate::total     0.002929                       # mshr miss rate for ReadExReq accesses (Ratio)
board.cache_hierarchy.l2_cache.ReadExReq.avgMshrMissLatency::processor.cores.core.data 84366.694553                       # average ReadExReq mshr miss latency ((Tick/Count))
board.cache_hierarchy.l2_cache.ReadExReq.avgMshrMissLatency::total 84366.694553                       # average ReadExReq mshr miss latency ((Tick/Count))
board.cache_hierarchy.l2_cache.ReadSharedReq.hits::cache_hierarchy.l1_dcache.prefetcher       791426                       # number of ReadSharedReq hits (Count)
board.cache_hierarchy.l2_cache.ReadSharedReq.hits::processor.cores.core.inst        13740                       # number of ReadSharedReq hits (Count)
board.cache_hierarchy.l2_cache.ReadSharedReq.hits::processor.cores.core.data     18179688                       # number of ReadSharedReq hits (Count)
board.cache_hierarchy.l2_cache.ReadSharedReq.hits::total     18984854                       # number of ReadSharedReq hits (Count)
board.cache_hierarchy.l2_cache.ReadSharedReq.misses::cache_hierarchy.l1_dcache.prefetcher        34039                       # number of ReadSharedReq misses (Count)
board.cache_hierarchy.l2_cache.ReadSharedReq.misses::processor.cores.core.inst         1196                       # number of ReadSharedReq misses (Count)
board.cache_hierarchy.l2_cache.ReadSharedReq.misses::processor.cores.core.data       117887                       # number of ReadSharedReq misses (Count)
board.cache_hierarchy.l2_cache.ReadSharedReq.misses::total       153122                       # number of ReadSharedReq misses (Count)
board.cache_hierarchy.l2_cache.ReadSharedReq.missLatency::cache_hierarchy.l1_dcache.prefetcher   2767092280                       # number of ReadSharedReq miss ticks (Tick)
board.cache_hierarchy.l2_cache.ReadSharedReq.missLatency::processor.cores.core.inst     67810122                       # number of ReadSharedReq miss ticks (Tick)
board.cache_hierarchy.l2_cache.ReadSharedReq.missLatency::processor.cores.core.data   9074134782                       # number of ReadSharedReq miss ticks (Tick)
board.cache_hierarchy.l2_cache.ReadSharedReq.missLatency::total  11909037184                       # number of ReadSharedReq miss ticks (Tick)
board.cache_hierarchy.l2_cache.ReadSharedReq.accesses::cache_hierarchy.l1_dcache.prefetcher       825465                       # number of ReadSharedReq accesses(hits+misses) (Count)
board.cache_hierarchy.l2_cache.ReadSharedReq.accesses::processor.cores.core.inst        14936                       # number of ReadSharedReq accesses(hits+misses) (Count)
board.cache_hierarchy.l2_cache.ReadSharedReq.accesses::processor.cores.core.data     18297575                       # number of ReadSharedReq accesses(hits+misses) (Count)
board.cache_hierarchy.l2_cache.ReadSharedReq.accesses::total     19137976                       # number of ReadSharedReq accesses(hits+misses) (Count)
board.cache_hierarchy.l2_cache.ReadSharedReq.missRate::cache_hierarchy.l1_dcache.prefetcher     0.041236                       # miss rate for ReadSharedReq accesses (Ratio)
board.cache_hierarchy.l2_cache.ReadSharedReq.missRate::processor.cores.core.inst     0.080075                       # miss rate for ReadSharedReq accesses (Ratio)
board.cache_hierarchy.l2_cache.ReadSharedReq.missRate::processor.cores.core.data     0.006443                       # miss rate for ReadSharedReq accesses (Ratio)
board.cache_hierarchy.l2_cache.ReadSharedReq.missRate::total     0.008001                       # miss rate for ReadSharedReq accesses (Ratio)
board.cache_hierarchy.l2_cache.ReadSharedReq.avgMissLatency::cache_hierarchy.l1_dcache.prefetcher 81291.820559                       # average ReadSharedReq miss latency ((Tick/Count))
board.cache_hierarchy.l2_cache.ReadSharedReq.avgMissLatency::processor.cores.core.inst 56697.426421                       # average ReadSharedReq miss latency ((Tick/Count))
board.cache_hierarchy.l2_cache.ReadSharedReq.avgMissLatency::processor.cores.core.data 76973.158889                       # average ReadSharedReq miss latency ((Tick/Count))
board.cache_hierarchy.l2_cache.ReadSharedReq.avgMissLatency::total 77774.827811                       # average ReadSharedReq miss latency ((Tick/Count))
board.cache_hierarchy.l2_cache.ReadSharedReq.mshrHits::cache_hierarchy.l1_dcache.prefetcher        16167                       # number of ReadSharedReq MSHR hits (Count)
board.cache_hierarchy.l2_cache.ReadSharedReq.mshrHits::processor.cores.core.data           60                       # number of ReadSharedReq MSHR hits (Count)
board.cache_hierarchy.l2_cache.ReadSharedReq.mshrHits::total        16227                       # number of ReadSharedReq MSHR hits (Count)
board.cache_hierarchy.l2_cache.ReadSharedReq.mshrMisses::cache_hierarchy.l1_dcache.prefetcher        17872                       # number of ReadSharedReq MSHR misses (Count)
board.cache_hierarchy.l2_cache.ReadSharedReq.mshrMisses::processor.cores.core.inst         1196                       # number of ReadSharedReq MSHR misses (Count)
board.cache_hierarchy.l2_cache.ReadSharedReq.mshrMisses::processor.cores.core.data       117827                       # number of ReadSharedReq MSHR misses (Count)
board.cache_hierarchy.l2_cache.ReadSharedReq.mshrMisses::total       136895                       # number of ReadSharedReq MSHR misses (Count)
board.cache_hierarchy.l2_cache.ReadSharedReq.mshrMissLatency::cache_hierarchy.l1_dcache.prefetcher   1560204843                       # number of ReadSharedReq MSHR miss ticks (Tick)
board.cache_hierarchy.l2_cache.ReadSharedReq.mshrMissLatency::processor.cores.core.inst     63827442                       # number of ReadSharedReq MSHR miss ticks (Tick)
board.cache_hierarchy.l2_cache.ReadSharedReq.mshrMissLatency::processor.cores.core.data   8678622690                       # number of ReadSharedReq MSHR miss ticks (Tick)
board.cache_hierarchy.l2_cache.ReadSharedReq.mshrMissLatency::total  10302654975                       # number of ReadSharedReq MSHR miss ticks (Tick)
board.cache_hierarchy.l2_cache.ReadSharedReq.mshrMissRate::cache_hierarchy.l1_dcache.prefetcher     0.021651                       # mshr miss rate for ReadSharedReq accesses (Ratio)
board.cache_hierarchy.l2_cache.ReadSharedReq.mshrMissRate::processor.cores.core.inst     0.080075                       # mshr miss rate for ReadSharedReq accesses (Ratio)
board.cache_hierarchy.l2_cache.ReadSharedReq.mshrMissRate::processor.cores.core.data     0.006439                       # mshr miss rate for ReadSharedReq accesses (Ratio)
board.cache_hierarchy.l2_cache.ReadSharedReq.mshrMissRate::total     0.007153                       # mshr miss rate for ReadSharedReq accesses (Ratio)
board.cache_hierarchy.l2_cache.ReadSharedReq.avgMshrMissLatency::cache_hierarchy.l1_dcache.prefetcher 87298.838574                       # average ReadSharedReq mshr miss latency ((Tick/Count))
board.cache_hierarchy.l2_cache.ReadSharedReq.avgMshrMissLatency::processor.cores.core.inst 53367.426421                       # average ReadSharedReq mshr miss latency ((Tick/Count))
board.cache_hierarchy.l2_cache.ReadSharedReq.avgMshrMissLatency::processor.cores.core.data 73655.636569                       # average ReadSharedReq mshr miss latency ((Tick/Count))
board.cache_hierarchy.l2_cache.ReadSharedReq.avgMshrMissLatency::total 75259.541802                       # average ReadSharedReq mshr miss latency ((Tick/Count))
board.cache_hierarchy.l2_cache.WritebackDirty.hits::writebacks       682088                       # number of WritebackDirty hits (Count)
board.cache_hierarchy.l2_cache.WritebackDirty.hits::total       682088                       # number of WritebackDirty hits (Count)
board.cache_hierarchy.l2_cache.WritebackDirty.accesses::writebacks       682088                       # number of WritebackDirty accesses(hits+misses) (Count)
board.cache_hierarchy.l2_cache.WritebackDirty.accesses::total       682088                       # number of WritebackDirty accesses(hits+misses) (Count)
board.cache_hierarchy.l2_cache.power_state.pwrStateResidencyTicks::UNDEFINED 171715073706                       # Cumulative time (in ticks) in various power states (Tick)
board.cache_hierarchy.l2_cache.prefetcher.demandMshrMisses       138437                       # demands not covered by prefetchs (Count)
board.cache_hierarchy.l2_cache.prefetcher.pfIssued       164035                       # number of hwpf issued (Count)
board.cache_hierarchy.l2_cache.prefetcher.pfUnused        13425                       # number of HardPF blocks evicted w/o reference (Count)
board.cache_hierarchy.l2_cache.prefetcher.pfUseful        21927                       # number of useful prefetch (Count)
board.cache_hierarchy.l2_cache.prefetcher.pfUsefulButMiss            0                       # number of hit on prefetch but cache block is not in an usable state (Count)
board.cache_hierarchy.l2_cache.prefetcher.accuracy     0.133673                       # accuracy of the prefetcher (Count)
board.cache_hierarchy.l2_cache.prefetcher.coverage     0.136733                       # coverage brought by this prefetcher (Count)
board.cache_hierarchy.l2_cache.prefetcher.pfHitInCache        71451                       # number of prefetches hitting in cache (Count)
board.cache_hierarchy.l2_cache.prefetcher.pfHitInMSHR        26893                       # number of prefetches hitting in a MSHR (Count)
board.cache_hierarchy.l2_cache.prefetcher.pfHitInWB          862                       # number of prefetches hit in the Write Buffer (Count)
board.cache_hierarchy.l2_cache.prefetcher.pfLate        99206                       # number of late prefetches (hitting in cache, MSHR or WB) (Count)
board.cache_hierarchy.l2_cache.prefetcher.pfIdentified       219644                       # number of prefetch candidates identified (Count)
board.cache_hierarchy.l2_cache.prefetcher.pfBufferHit        34227                       # number of redundant prefetches already in prefetch queue (Count)
board.cache_hierarchy.l2_cache.prefetcher.pfInCache            0                       # number of redundant prefetches already in cache/mshr dropped (Count)
board.cache_hierarchy.l2_cache.prefetcher.pfRemovedDemand        12951                       # number of prefetches dropped due to a demand for the same address (Count)
board.cache_hierarchy.l2_cache.prefetcher.pfRemovedFull            0                       # number of prefetches dropped due to prefetch queue size (Count)
board.cache_hierarchy.l2_cache.prefetcher.pfSpanPage        71760                       # number of prefetches that crossed the page (Count)
board.cache_hierarchy.l2_cache.prefetcher.pfUsefulSpanPage         4191                       # number of prefetches that is useful and crossed the page (Count)
board.cache_hierarchy.l2_cache.prefetcher.power_state.pwrStateResidencyTicks::UNDEFINED 171715073706                       # Cumulative time (in ticks) in various power states (Tick)
board.cache_hierarchy.l2_cache.tags.tagsInUse  4090.993658                       # Average ticks per tags in use ((Tick/Count))
board.cache_hierarchy.l2_cache.tags.totalRefs     39264489                       # Total number of references to valid blocks. (Count)
board.cache_hierarchy.l2_cache.tags.sampledRefs       195594                       # Sample count of references to valid blocks. (Count)
board.cache_hierarchy.l2_cache.tags.avgRefs   200.744854                       # Average number of references to valid blocks. ((Count/Count))
board.cache_hierarchy.l2_cache.tags.warmupTick        69597                       # The tick when the warmup percentage was hit. (Tick)
board.cache_hierarchy.l2_cache.tags.occupancies::writebacks     0.294501                       # Average occupied blocks per tick, per requestor ((Count/Tick))
board.cache_hierarchy.l2_cache.tags.occupancies::cache_hierarchy.l1_dcache.prefetcher   147.107869                       # Average occupied blocks per tick, per requestor ((Count/Tick))
board.cache_hierarchy.l2_cache.tags.occupancies::cache_hierarchy.l2_cache.prefetcher  2433.665912                       # Average occupied blocks per tick, per requestor ((Count/Tick))
board.cache_hierarchy.l2_cache.tags.occupancies::processor.cores.core.inst     1.492820                       # Average occupied blocks per tick, per requestor ((Count/Tick))
board.cache_hierarchy.l2_cache.tags.occupancies::processor.cores.core.data  1508.432555                       # Average occupied blocks per tick, per requestor ((Count/Tick))
board.cache_hierarchy.l2_cache.tags.avgOccs::writebacks     0.000072                       # Average percentage of cache occupancy ((Ratio/Tick))
board.cache_hierarchy.l2_cache.tags.avgOccs::cache_hierarchy.l1_dcache.prefetcher     0.035915                       # Average percentage of cache occupancy ((Ratio/Tick))
board.cache_hierarchy.l2_cache.tags.avgOccs::cache_hierarchy.l2_cache.prefetcher     0.594157                       # Average percentage of cache occupancy ((Ratio/Tick))
board.cache_hierarchy.l2_cache.tags.avgOccs::processor.cores.core.inst     0.000364                       # Average percentage of cache occupancy ((Ratio/Tick))
board.cache_hierarchy.l2_cache.tags.avgOccs::processor.cores.core.data     0.368270                       # Average percentage of cache occupancy ((Ratio/Tick))
[...]
board.processor.cores.core.commitStats0.numOpsNotNOP            0                       # Number of Ops (including micro ops) Simulated (Count)
board.processor.cores.core.commitStats0.cpi     3.743929                       # CPI: cycles per instruction (thread level) ((Cycle/Count))
board.processor.cores.core.commitStats0.ipc     0.267099                       # IPC: instructions per cycle (thread level) ((Count/Cycle))
board.processor.cores.core.commitStats0.numMemRefs            0                       # Number of memory references committed (Count)
board.processor.cores.core.commitStats0.numFpInsts       281462                       # Number of float instructions (Count)
board.processor.cores.core.commitStats0.numIntInsts    239951451                       # Number of integer instructions (Count)
board.processor.cores.core.commitStats0.numLoadInsts     51243768                       # Number of load instructions (Count)
board.processor.cores.core.commitStats0.numStoreInsts     16932834                       # Number of store instructions (Count)
board.processor.cores.core.commitStats0.numVecInsts            0                       # Number of vector instructions (Count)
board.processor.cores.core.commitStats0.committedInstType::No_OpClass       267838      0.11%      0.11% # Class of committed instruction. (Count)
board.processor.cores.core.commitStats0.committedInstType::IntAlu    155130356     64.51%     64.62% # Class of committed instruction. (Count)
board.processor.cores.core.commitStats0.committedInstType::IntMult     16777904      6.98%     71.60% # Class of committed instruction. (Count)
board.processor.cores.core.commitStats0.committedInstType::IntDiv         1407      0.00%     71.60% # Class of committed instruction. (Count)
board.processor.cores.core.commitStats0.committedInstType::FloatAdd         2169      0.00%     71.60% # Class of committed instruction. (Count)
board.processor.cores.core.commitStats0.committedInstType::FloatCmp            0      0.00%     71.60% # Class of committed instruction. (Count)
board.processor.cores.core.commitStats0.committedInstType::FloatCvt            0      0.00%     71.60% # Class of committed instruction. (Count)
board.processor.cores.core.commitStats0.committedInstType::FloatMult            0      0.00%     71.60% # Class of committed instruction. (Count)
board.processor.cores.core.commitStats0.committedInstType::FloatMultAcc            0      0.00%     71.60% # Class of committed instruction. (Count)
board.processor.cores.core.commitStats0.committedInstType::FloatDiv            0      0.00%     71.60% # Class of committed instruction. (Count)
board.processor.cores.core.commitStats0.committedInstType::FloatMisc            0      0.00%     71.60% # Class of committed instruction. (Count)
board.processor.cores.core.commitStats0.committedInstType::FloatSqrt            0      0.00%     71.60% # Class of committed instruction. (Count)
board.processor.cores.core.commitStats0.committedInstType::SimdAdd        98698      0.04%     71.64% # Class of committed instruction. (Count)
board.processor.cores.core.commitStats0.committedInstType::SimdAddAcc            0      0.00%     71.64% # Class of committed instruction. (Count)
board.processor.cores.core.commitStats0.committedInstType::SimdAlu         2380      0.00%     71.65% # Class of committed instruction. (Count)
board.processor.cores.core.commitStats0.committedInstType::SimdCmp            0      0.00%     71.65% # Class of committed instruction. (Count)
board.processor.cores.core.commitStats0.committedInstType::SimdCvt          896      0.00%     71.65% # Class of committed instruction. (Count)
board.processor.cores.core.commitStats0.committedInstType::SimdMisc         3994      0.00%     71.65% # Class of committed instruction. (Count)
board.processor.cores.core.commitStats0.committedInstType::SimdMult            0      0.00%     71.65% # Class of committed instruction. (Count)
board.processor.cores.core.commitStats0.committedInstType::SimdMultAcc            0      0.00%     71.65% # Class of committed instruction. (Count)
board.processor.cores.core.commitStats0.committedInstType::SimdMatMultAcc            0      0.00%     71.65% # Class of committed instruction. (Count)
board.processor.cores.core.commitStats0.committedInstType::SimdShift          200      0.00%     71.65% # Class of committed instruction. (Count)
board.processor.cores.core.commitStats0.committedInstType::SimdShiftAcc            0      0.00%     71.65% # Class of committed instruction. (Count)
board.processor.cores.core.commitStats0.committedInstType::SimdDiv            0      0.00%     71.65% # Class of committed instruction. (Count)
board.processor.cores.core.commitStats0.committedInstType::SimdSqrt            0      0.00%     71.65% # Class of committed instruction. (Count)
board.processor.cores.core.commitStats0.committedInstType::SimdFloatAdd            0      0.00%     71.65% # Class of committed instruction. (Count)
board.processor.cores.core.commitStats0.committedInstType::SimdFloatAlu            0      0.00%     71.65% # Class of committed instruction. (Count)
board.processor.cores.core.commitStats0.committedInstType::SimdFloatCmp            0      0.00%     71.65% # Class of committed instruction. (Count)
board.processor.cores.core.commitStats0.committedInstType::SimdFloatCvt            0      0.00%     71.65% # Class of committed instruction. (Count)
board.processor.cores.core.commitStats0.committedInstType::SimdFloatDiv            0      0.00%     71.65% # Class of committed instruction. (Count)
board.processor.cores.core.commitStats0.committedInstType::SimdFloatMisc            0      0.00%     71.65% # Class of committed instruction. (Count)
board.processor.cores.core.commitStats0.committedInstType::SimdFloatMult            0      0.00%     71.65% # Class of committed instruction. (Count)
board.processor.cores.core.commitStats0.committedInstType::SimdFloatMultAcc            0      0.00%     71.65% # Class of committed instruction. (Count)
board.processor.cores.core.commitStats0.committedInstType::SimdFloatMatMultAcc            0      0.00%     71.65% # Class of committed instruction. (Count)
board.processor.cores.core.commitStats0.committedInstType::SimdFloatSqrt            0      0.00%     71.65% # Class of committed instruction. (Count)
board.processor.cores.core.commitStats0.committedInstType::SimdReduceAdd            0      0.00%     71.65% # Class of committed instruction. (Count)
board.processor.cores.core.commitStats0.committedInstType::SimdReduceAlu            0      0.00%     71.65% # Class of committed instruction. (Count)
board.processor.cores.core.commitStats0.committedInstType::SimdReduceCmp            0      0.00%     71.65% # Class of committed instruction. (Count)
board.processor.cores.core.commitStats0.committedInstType::SimdFloatReduceAdd            0      0.00%     71.65% # Class of committed instruction. (Count)
board.processor.cores.core.commitStats0.committedInstType::SimdFloatReduceCmp            0      0.00%     71.65% # Class of committed instruction. (Count)
board.processor.cores.core.commitStats0.committedInstType::SimdAes            0      0.00%     71.65% # Class of committed instruction. (Count)
board.processor.cores.core.commitStats0.committedInstType::SimdAesMix            0      0.00%     71.65% # Class of committed instruction. (Count)
board.processor.cores.core.commitStats0.committedInstType::SimdSha1Hash            0      0.00%     71.65% # Class of committed instruction. (Count)
board.processor.cores.core.commitStats0.committedInstType::SimdSha1Hash2            0      0.00%     71.65% # Class of committed instruction. (Count)
board.processor.cores.core.commitStats0.committedInstType::SimdSha256Hash            0      0.00%     71.65% # Class of committed instruction. (Count)
board.processor.cores.core.commitStats0.committedInstType::SimdSha256Hash2            0      0.00%     71.65% # Class of committed instruction. (Count)
board.processor.cores.core.commitStats0.committedInstType::SimdShaSigma2            0      0.00%     71.65% # Class of committed instruction. (Count)
board.processor.cores.core.commitStats0.committedInstType::SimdShaSigma3            0      0.00%     71.65% # Class of committed instruction. (Count)
board.processor.cores.core.commitStats0.committedInstType::SimdPredAlu            0      0.00%     71.65% # Class of committed instruction. (Count)
board.processor.cores.core.commitStats0.committedInstType::Matrix            0      0.00%     71.65% # Class of committed instruction. (Count)
board.processor.cores.core.commitStats0.committedInstType::MatrixMov            0      0.00%     71.65% # Class of committed instruction. (Count)
board.processor.cores.core.commitStats0.committedInstType::MatrixOP            0      0.00%     71.65% # Class of committed instruction. (Count)
board.processor.cores.core.commitStats0.committedInstType::MemRead     51241252     21.31%     92.96% # Class of committed instruction. (Count)
board.processor.cores.core.commitStats0.committedInstType::MemWrite     16862394      7.01%     99.97% # Class of committed instruction. (Count)
board.processor.cores.core.commitStats0.committedInstType::FloatMemRead         2516      0.00%     99.97% # Class of committed instruction. (Count)
board.processor.cores.core.commitStats0.committedInstType::FloatMemWrite        70440      0.03%    100.00% # Class of committed instruction. (Count)
board.processor.cores.core.commitStats0.committedInstType::IprAccess            0      0.00%    100.00% # Class of committed instruction. (Count)
board.processor.cores.core.commitStats0.committedInstType::InstPrefetch            0      0.00%    100.00% # Class of committed instruction. (Count)
board.processor.cores.core.commitStats0.committedInstType::SimdUnitStrideLoad            0      0.00%    100.00% # Class of committed instruction. (Count)
board.processor.cores.core.commitStats0.committedInstType::SimdUnitStrideStore            0      0.00%    100.00% # Class of committed instruction. (Count)
board.processor.cores.core.commitStats0.committedInstType::SimdUnitStrideMaskLoad            0      0.00%    100.00% # Class of committed instruction. (Count)
board.processor.cores.core.commitStats0.committedInstType::SimdUnitStrideMaskStore            0      0.00%    100.00% # Class of committed instruction. (Count)
board.processor.cores.core.commitStats0.committedInstType::SimdStridedLoad            0      0.00%    100.00% # Class of committed instruction. (Count)
board.processor.cores.core.commitStats0.committedInstType::SimdStridedStore            0      0.00%    100.00% # Class of committed instruction. (Count)
board.processor.cores.core.commitStats0.committedInstType::SimdIndexedLoad            0      0.00%    100.00% # Class of committed instruction. (Count)
board.processor.cores.core.commitStats0.committedInstType::SimdIndexedStore            0      0.00%    100.00% # Class of committed instruction. (Count)
board.processor.cores.core.commitStats0.committedInstType::SimdWholeRegisterLoad            0      0.00%    100.00% # Class of committed instruction. (Count)
board.processor.cores.core.commitStats0.committedInstType::SimdWholeRegisterStore            0      0.00%    100.00% # Class of committed instruction. (Count)
board.processor.cores.core.commitStats0.committedInstType::SimdUnitStrideFaultOnlyFirstLoad            0      0.00%    100.00% # Class of committed instruction. (Count)
board.processor.cores.core.commitStats0.committedInstType::SimdUnitStrideSegmentedLoad            0      0.00%    100.00% # Class of committed instruction. (Count)
board.processor.cores.core.commitStats0.committedInstType::SimdUnitStrideSegmentedStore            0      0.00%    100.00% # Class of committed instruction. (Count)
board.processor.cores.core.commitStats0.committedInstType::SimdExt            0      0.00%    100.00% # Class of committed instruction. (Count)
board.processor.cores.core.commitStats0.committedInstType::SimdFloatExt            0      0.00%    100.00% # Class of committed instruction. (Count)
board.processor.cores.core.commitStats0.committedInstType::SimdConfig            0      0.00%    100.00% # Class of committed instruction. (Count)
board.processor.cores.core.commitStats0.committedInstType::total    240462444                       # Class of committed instruction. (Count)
board.processor.cores.core.commitStats0.committedControl::IsControl     17446211                       # Class of control type instructions committed (Count)
board.processor.cores.core.commitStats0.committedControl::IsDirectControl     17438882                       # Class of control type instructions committed (Count)
board.processor.cores.core.commitStats0.committedControl::IsIndirectControl         7291                       # Class of control type instructions committed (Count)
board.processor.cores.core.commitStats0.committedControl::IsCondControl     17428209                       # Class of control type instructions committed (Count)
board.processor.cores.core.commitStats0.committedControl::IsUncondControl        17964                       # Class of control type instructions committed (Count)
board.processor.cores.core.commitStats0.committedControl::IsCall         5458                       # Class of control type instructions committed (Count)
board.processor.cores.core.commitStats0.committedControl::IsReturn         5453                       # Class of control type instructions committed (Count)
board.processor.cores.core.exec_context.thread_0.numMatAluAccesses            0                       # Number of matrix alu accesses (Count)
board.processor.cores.core.exec_context.thread_0.numCallsReturns        10911                       # Number of times a function call or return occured (Count)
board.processor.cores.core.exec_context.thread_0.numMatInsts            0                       # Number of matrix instructions (Count)
board.processor.cores.core.exec_context.thread_0.numIdleCycles     0.003003                       # Number of idle cycles (Cycle)
board.processor.cores.core.exec_context.thread_0.numBusyCycles 515660881.996997                       # Number of busy cycles (Cycle)
board.processor.cores.core.exec_context.thread_0.notIdleFraction     1.000000                       # Percentage of non-idle cycles (Ratio)
board.processor.cores.core.exec_context.thread_0.idleFraction     0.000000                       # Percentage of idle cycles (Ratio)
board.processor.cores.core.executeStats0.numInsts            0                       # Number of executed instructions (Count)
board.processor.cores.core.executeStats0.numNop            0                       # Number of nop insts executed (Count)
board.processor.cores.core.executeStats0.numBranches            0                       # Number of branches executed (Count)
board.processor.cores.core.executeStats0.numLoadInsts            0                       # Number of load instructions executed (Count)
board.processor.cores.core.executeStats0.numStoreInsts     68176602                       # Number of stores executed (Count)
board.processor.cores.core.executeStats0.instRate            0                       # Inst execution rate ((Count/Cycle))
board.processor.cores.core.executeStats0.numFpAluAccesses       281462                       # Number of float alu accesses (Count)
board.processor.cores.core.executeStats0.numFpRegReads       579894                       # Number of times the floating registers were read (Count)
board.processor.cores.core.executeStats0.numFpRegWrites       209783                       # Number of times the floating registers were written (Count)
board.processor.cores.core.executeStats0.numIntAluAccesses    239951451                       # Number of integer alu accesses (Count)
board.processor.cores.core.executeStats0.numIntRegReads    375156965                       # Number of times the integer registers were read (Count)
board.processor.cores.core.executeStats0.numIntRegWrites    188213288                       # Number of times the integer registers were written (Count)
board.processor.cores.core.executeStats0.numMemRefs     68176602                       # Number of memory refs (Count)
board.processor.cores.core.executeStats0.numMiscRegReads    103014261                       # Number of times the Misc registers were read (Count)
board.processor.cores.core.executeStats0.numVecAluAccesses            0                       # Number of vector alu accesses (Count)
board.processor.cores.core.executeStats0.numDiscardedOps            0                       # Number of ops (including micro ops) which were discarded before commit (Count)
board.processor.cores.core.fetchStats0.numInsts    137732555                       # Number of instructions fetched (thread level) (Count)
board.processor.cores.core.fetchStats0.numOps    240462444                       # Number of ops (including micro ops) fetched (thread level) (Count)
board.processor.cores.core.fetchStats0.fetchRate     0.267099                       # Number of inst fetches per cycle ((Count/Cycle))
board.processor.cores.core.fetchStats0.numBranches     17446211                       # Number of branches fetched (Count)
board.processor.cores.core.fetchStats0.branchRate     0.033833                       # Number of branch fetches per cycle (Ratio)
board.processor.cores.core.fetchStats0.numFetchSuspends            0                       # Number of times Execute suspended instruction fetching (Count)
board.processor.cores.core.interrupts.clk_domain.clock         5328                       # Clock period in ticks (Tick)
board.processor.cores.core.mmu.dtb.rdAccesses     51243771                       # TLB accesses on read requests (Count)
board.processor.cores.core.mmu.dtb.wrAccesses     16932835                       # TLB accesses on write requests (Count)
board.processor.cores.core.mmu.dtb.rdMisses         3492                       # TLB misses on read requests (Count)
board.processor.cores.core.mmu.dtb.wrMisses          619                       # TLB misses on write requests (Count)
board.processor.cores.core.mmu.dtb.walker.power_state.pwrStateResidencyTicks::UNDEFINED 171715073706                       # Cumulative time (in ticks) in various power states (Tick)
board.processor.cores.core.mmu.itb.rdAccesses            0                       # TLB accesses on read requests (Count)
board.processor.cores.core.mmu.itb.wrAccesses    172229235                       # TLB accesses on write requests (Count)
board.processor.cores.core.mmu.itb.rdMisses            0                       # TLB misses on read requests (Count)
board.processor.cores.core.mmu.itb.wrMisses          167                       # TLB misses on write requests (Count)
board.processor.cores.core.mmu.itb.walker.power_state.pwrStateResidencyTicks::UNDEFINED 171715073706                       # Cumulative time (in ticks) in various power states (Tick)
board.processor.cores.core.power_state.pwrStateResidencyTicks::ON 171715073706                       # Cumulative time (in ticks) in various power states (Tick)
board.processor.cores.core.thread_0.numInsts            0                       # Number of Instructions committed (Count)
board.processor.cores.core.thread_0.numOps            0                       # Number of Ops committed (Count)
board.processor.cores.core.thread_0.numMemRefs            0                       # Number of Memory References (Count)
board.processor.cores.core.workload.numSyscalls           38                       # Number of system calls (Count)
board.workload.inst.arm                             0                       # number of arm instructions executed (Count)
board.workload.inst.quiesce                         0                       # number of quiesce instructions executed (Count)

---------- End Simulation Statistics   ----------
