
---------- Begin Simulation Statistics ----------
simSeconds                                   0.155088                       # Number of seconds simulated (Second)
simTicks                                 155087915508                       # Number of ticks simulated (Tick)
finalTick                                155087915508                       # Number of ticks from beginning of simulation (restored from checkpoints and never reset) (Tick)
simFreq                                  1000000000000                       # The number of ticks per simulated second ((Tick/Second))
hostSeconds                                    393.16                       # Real time elapsed on the host (Second)
hostTickRate                                394469966                       # The number of ticks simulated per host second (ticks/s) ((Tick/Second))
hostMemory                                    2297240                       # Number of bytes of host memory used (Byte)
simInsts                                    137732330                       # Number of instructions simulated (Count)
simOps                                      240462206                       # Number of ops (including micro ops) simulated (Count)
hostInstRate                                   350325                       # Simulator instruction rate (inst/s) ((Count/Second))
hostOpRate                                     611621                       # Simulator op (including micro ops) rate (op/s) ((Count/Second))
board.cache_hierarchy.dptw_cache.blockedCycles::no_mshrs            0                       # number of cycles access was blocked (Cycle)
board.cache_hierarchy.dptw_cache.blockedCycles::no_targets            0                       # number of cycles access was blocked (Cycle)
board.cache_hierarchy.dptw_cache.blockedCauses::no_mshrs            0                       # number of times access was blocked (Count)
board.cache_hierarchy.dptw_cache.blockedCauses::no_targets            0                       # number of times access was blocked (Count)
board.cache_hierarchy.dptw_cache.avgBlocked::no_mshrs          nan                       # average number of cycles each access was blocked ((Cycle/Count))
board.cache_hierarchy.dptw_cache.avgBlocked::no_targets          nan                       # average number of cycles each access was blocked ((Cycle/Count))
board.cache_hierarchy.dptw_cache.replacements            0                       # number of replacements (Count)
board.cache_hierarchy.dptw_cache.power_state.pwrStateResidencyTicks::UNDEFINED 155087915508                       # Cumulative time (in ticks) in various power states (Tick)
board.cache_hierarchy.dptw_cache.tags.tagsInUse            0                       # Average ticks per tags in use ((Tick/Count))
board.cache_hierarchy.dptw_cache.tags.totalRefs            0                       # Total number of references to valid blocks. (Count)
board.cache_hierarchy.dptw_cache.tags.sampledRefs            0                       # Sample count of references to valid blocks. (Count)
board.cache_hierarchy.dptw_cache.tags.avgRefs          nan                       # Average number of references to valid blocks. ((Count/Count))
board.cache_hierarchy.dptw_cache.tags.warmupTick            0                       # The tick when the warmup percentage was hit. (Tick)
board.cache_hierarchy.dptw_cache.tags.tagAccesses            0                       # Number of tag accesses (Count)
board.cache_hierarchy.dptw_cache.tags.dataAccesses            0                       # Number of data accesses (Count)
board.cache_hierarchy.dptw_cache.tags.power_state.pwrStateResidencyTicks::UNDEFINED 155087915508                       # Cumulative time (in ticks) in various power states (Tick)
board.cache_hierarchy.iptw_cache.blockedCycles::no_mshrs            0                       # number of cycles access was blocked (Cycle)
board.cache_hierarchy.iptw_cache.blockedCycles::no_targets            0                       # number of cycles access was blocked (Cycle)
board.cache_hierarchy.iptw_cache.blockedCauses::no_mshrs            0                       # number of times access was blocked (Count)
board.cache_hierarchy.iptw_cache.blockedCauses::no_targets            0                       # number of times access was blocked (Count)
board.cache_hierarchy.iptw_cache.avgBlocked::no_mshrs          nan                       # average number of cycles each access was blocked ((Cycle/Count))
board.cache_hierarchy.iptw_cache.avgBlocked::no_targets          nan                       # average number of cycles each access was blocked ((Cycle/Count))
board.cache_hierarchy.iptw_cache.replacements            0                       # number of replacements (Count)
board.cache_hierarchy.iptw_cache.power_state.pwrStateResidencyTicks::UNDEFINED 155087915508                       # Cumulative time (in ticks) in various power states (Tick)
board.cache_hierarchy.iptw_cache.tags.tagsInUse            0                       # Average ticks per tags in use ((Tick/Count))
board.cache_hierarchy.iptw_cache.tags.totalRefs            0                       # Total number of references to valid blocks. (Count)
board.cache_hierarchy.iptw_cache.tags.sampledRefs            0                       # Sample count of references to valid blocks. (Count)
board.cache_hierarchy.iptw_cache.tags.avgRefs          nan                       # Average number of references to valid blocks. ((Count/Count))
board.cache_hierarchy.iptw_cache.tags.warmupTick            0                       # The tick when the warmup percentage was hit. (Tick)
board.cache_hierarchy.iptw_cache.tags.tagAccesses            0                       # Number of tag accesses (Count)
board.cache_hierarchy.iptw_cache.tags.dataAccesses            0                       # Number of data accesses (Count)
board.cache_hierarchy.iptw_cache.tags.power_state.pwrStateResidencyTicks::UNDEFINED 155087915508                       # Cumulative time (in ticks) in various power states (Tick)
board.cache_hierarchy.l1_dcache.demandHits::processor.cores.core.data     51173318                       # number of demand (read+write) hits (Count)
board.cache_hierarchy.l1_dcache.demandHits::total     51173318                       # number of demand (read+write) hits (Count)
board.cache_hierarchy.l1_dcache.overallHits::processor.cores.core.data     51173318                       # number of overall hits (Count)
board.cache_hierarchy.l1_dcache.overallHits::total     51173318                       # number of overall hits (Count)
board.cache_hierarchy.l1_dcache.demandMisses::processor.cores.core.data     17003071                       # number of demand (read+write) misses (Count)
board.cache_hierarchy.l1_dcache.demandMisses::total     17003071                       # number of demand (read+write) misses (Count)
board.cache_hierarchy.l1_dcache.overallMisses::processor.cores.core.data     17003071                       # number of overall misses (Count)
board.cache_hierarchy.l1_dcache.overallMisses::total     17003071                       # number of overall misses (Count)
board.cache_hierarchy.l1_dcache.demandMissLatency::processor.cores.core.data  80627824134                       # number of demand (read+write) miss ticks (Tick)
board.cache_hierarchy.l1_dcache.demandMissLatency::total  80627824134                       # number of demand (read+write) miss ticks (Tick)
board.cache_hierarchy.l1_dcache.overallMissLatency::processor.cores.core.data  80627824134                       # number of overall miss ticks (Tick)
board.cache_hierarchy.l1_dcache.overallMissLatency::total  80627824134                       # number of overall miss ticks (Tick)
board.cache_hierarchy.l1_dcache.demandAccesses::processor.cores.core.data     68176389                       # number of demand (read+write) accesses (Count)
board.cache_hierarchy.l1_dcache.demandAccesses::total     68176389                       # number of demand (read+write) accesses (Count)
board.cache_hierarchy.l1_dcache.overallAccesses::processor.cores.core.data     68176389                       # number of overall (read+write) accesses (Count)
board.cache_hierarchy.l1_dcache.overallAccesses::total     68176389                       # number of overall (read+write) accesses (Count)
board.cache_hierarchy.l1_dcache.demandMissRate::processor.cores.core.data     0.249398                       # miss rate for demand accesses (Ratio)
board.cache_hierarchy.l1_dcache.demandMissRate::total     0.249398                       # miss rate for demand accesses (Ratio)
board.cache_hierarchy.l1_dcache.overallMissRate::processor.cores.core.data     0.249398                       # miss rate for overall accesses (Ratio)
board.cache_hierarchy.l1_dcache.overallMissRate::total     0.249398                       # miss rate for overall accesses (Ratio)
board.cache_hierarchy.l1_dcache.demandAvgMissLatency::processor.cores.core.data  4741.956564                       # average overall miss latency in ticks ((Tick/Count))
board.cache_hierarchy.l1_dcache.demandAvgMissLatency::total  4741.956564                       # average overall miss latency in ticks ((Tick/Count))
board.cache_hierarchy.l1_dcache.overallAvgMissLatency::processor.cores.core.data  4741.956564                       # average overall miss latency ((Tick/Count))
board.cache_hierarchy.l1_dcache.overallAvgMissLatency::total  4741.956564                       # average overall miss latency ((Tick/Count))
board.cache_hierarchy.l1_dcache.blockedCycles::no_mshrs            0                       # number of cycles access was blocked (Cycle)
board.cache_hierarchy.l1_dcache.blockedCycles::no_targets            0                       # number of cycles access was blocked (Cycle)
board.cache_hierarchy.l1_dcache.blockedCauses::no_mshrs            0                       # number of times access was blocked (Count)
board.cache_hierarchy.l1_dcache.blockedCauses::no_targets            0                       # number of times access was blocked (Count)
board.cache_hierarchy.l1_dcache.avgBlocked::no_mshrs          nan                       # average number of cycles each access was blocked ((Cycle/Count))
board.cache_hierarchy.l1_dcache.avgBlocked::no_targets          nan                       # average number of cycles each access was blocked ((Cycle/Count))
board.cache_hierarchy.l1_dcache.writebacks::writebacks       130754                       # number of writebacks (Count)
board.cache_hierarchy.l1_dcache.writebacks::total       130754                       # number of writebacks (Count)
board.cache_hierarchy.l1_dcache.demandMshrHits::processor.cores.core.data         2177                       # number of demand (read+write) MSHR hits (Count)
board.cache_hierarchy.l1_dcache.demandMshrHits::total         2177                       # number of demand (read+write) MSHR hits (Count)
board.cache_hierarchy.l1_dcache.overallMshrHits::processor.cores.core.data         2177                       # number of overall MSHR hits (Count)
board.cache_hierarchy.l1_dcache.overallMshrHits::total         2177                       # number of overall MSHR hits (Count)
board.cache_hierarchy.l1_dcache.demandMshrMisses::processor.cores.core.data     17000894                       # number of demand (read+write) MSHR misses (Count)
board.cache_hierarchy.l1_dcache.demandMshrMisses::total     17000894                       # number of demand (read+write) MSHR misses (Count)
board.cache_hierarchy.l1_dcache.overallMshrMisses::cache_hierarchy.l1_dcache.prefetcher      1852912                       # number of overall MSHR misses (Count)
board.cache_hierarchy.l1_dcache.overallMshrMisses::processor.cores.core.data     17000894                       # number of overall MSHR misses (Count)
board.cache_hierarchy.l1_dcache.overallMshrMisses::total     18853806                       # number of overall MSHR misses (Count)
board.cache_hierarchy.l1_dcache.demandMshrMissLatency::processor.cores.core.data  74932607052                       # number of demand (read+write) MSHR miss ticks (Tick)
board.cache_hierarchy.l1_dcache.demandMshrMissLatency::total  74932607052                       # number of demand (read+write) MSHR miss ticks (Tick)
board.cache_hierarchy.l1_dcache.overallMshrMissLatency::cache_hierarchy.l1_dcache.prefetcher  10696377759                       # number of overall MSHR miss ticks (Tick)
board.cache_hierarchy.l1_dcache.overallMshrMissLatency::processor.cores.core.data  74932607052                       # number of overall MSHR miss ticks (Tick)
board.cache_hierarchy.l1_dcache.overallMshrMissLatency::total  85628984811                       # number of overall MSHR miss ticks (Tick)
board.cache_hierarchy.l1_dcache.demandMshrMissRate::processor.cores.core.data     0.249366                       # mshr miss ratio for demand accesses (Ratio)
board.cache_hierarchy.l1_dcache.demandMshrMissRate::total     0.249366                       # mshr miss ratio for demand accesses (Ratio)
board.cache_hierarchy.l1_dcache.overallMshrMissRate::cache_hierarchy.l1_dcache.prefetcher          inf                       # mshr miss ratio for overall accesses (Ratio)
board.cache_hierarchy.l1_dcache.overallMshrMissRate::processor.cores.core.data     0.249366                       # mshr miss ratio for overall accesses (Ratio)
board.cache_hierarchy.l1_dcache.overallMshrMissRate::total     0.276545                       # mshr miss ratio for overall accesses (Ratio)
board.cache_hierarchy.l1_dcache.demandAvgMshrMissLatency::processor.cores.core.data  4407.568629                       # average overall mshr miss latency ((Tick/Count))
board.cache_hierarchy.l1_dcache.demandAvgMshrMissLatency::total  4407.568629                       # average overall mshr miss latency ((Tick/Count))
board.cache_hierarchy.l1_dcache.overallAvgMshrMissLatency::cache_hierarchy.l1_dcache.prefetcher  5772.739212                       # average overall mshr miss latency ((Tick/Count))
board.cache_hierarchy.l1_dcache.overallAvgMshrMissLatency::processor.cores.core.data  4407.568629                       # average overall mshr miss latency ((Tick/Count))
board.cache_hierarchy.l1_dcache.overallAvgMshrMissLatency::total  4541.734693                       # average overall mshr miss latency ((Tick/Count))
board.cache_hierarchy.l1_dcache.replacements     18853745                       # number of replacements (Count)
board.cache_hierarchy.l1_dcache.HardPFReq.mshrMisses::cache_hierarchy.l1_dcache.prefetcher      1852912                       # number of HardPFReq MSHR misses (Count)
board.cache_hierarchy.l1_dcache.HardPFReq.mshrMisses::total      1852912                       # number of HardPFReq MSHR misses (Count)
board.cache_hierarchy.l1_dcache.HardPFReq.mshrMissLatency::cache_hierarchy.l1_dcache.prefetcher  10696377759                       # number of HardPFReq MSHR miss ticks (Tick)
board.cache_hierarchy.l1_dcache.HardPFReq.mshrMissLatency::total  10696377759                       # number of HardPFReq MSHR miss ticks (Tick)
board.cache_hierarchy.l1_dcache.HardPFReq.mshrMissRate::cache_hierarchy.l1_dcache.prefetcher          inf                       # mshr miss rate for HardPFReq accesses (Ratio)
board.cache_hierarchy.l1_dcache.HardPFReq.mshrMissRate::total          inf                       # mshr miss rate for HardPFReq accesses (Ratio)
board.cache_hierarchy.l1_dcache.HardPFReq.avgMshrMissLatency::cache_hierarchy.l1_dcache.prefetcher  5772.739212                       # average HardPFReq mshr miss latency ((Tick/Count))
board.cache_hierarchy.l1_dcache.HardPFReq.avgMshrMissLatency::total  5772.739212                       # average HardPFReq mshr miss latency ((Tick/Count))
board.cache_hierarchy.l1_dcache.LockedRMWReadReq.hits::processor.cores.core.data            9                       # number of LockedRMWReadReq hits (Count)
board.cache_hierarchy.l1_dcache.LockedRMWReadReq.hits::total            9                       # number of LockedRMWReadReq hits (Count)
board.cache_hierarchy.l1_dcache.LockedRMWReadReq.misses::processor.cores.core.data            3                       # number of LockedRMWReadReq misses (Count)
board.cache_hierarchy.l1_dcache.LockedRMWReadReq.misses::total            3                       # number of LockedRMWReadReq misses (Count)
board.cache_hierarchy.l1_dcache.LockedRMWReadReq.missLatency::processor.cores.core.data       146187                       # number of LockedRMWReadReq miss ticks (Tick)
board.cache_hierarchy.l1_dcache.LockedRMWReadReq.missLatency::total       146187                       # number of LockedRMWReadReq miss ticks (Tick)
board.cache_hierarchy.l1_dcache.LockedRMWReadReq.accesses::processor.cores.core.data           12                       # number of LockedRMWReadReq accesses(hits+misses) (Count)
board.cache_hierarchy.l1_dcache.LockedRMWReadReq.accesses::total           12                       # number of LockedRMWReadReq accesses(hits+misses) (Count)
board.cache_hierarchy.l1_dcache.LockedRMWReadReq.missRate::processor.cores.core.data     0.250000                       # miss rate for LockedRMWReadReq accesses (Ratio)
board.cache_hierarchy.l1_dcache.LockedRMWReadReq.missRate::total     0.250000                       # miss rate for LockedRMWReadReq accesses (Ratio)
board.cache_hierarchy.l1_dcache.LockedRMWReadReq.avgMissLatency::processor.cores.core.data        48729                       # average LockedRMWReadReq miss latency ((Tick/Count))
board.cache_hierarchy.l1_dcache.LockedRMWReadReq.avgMissLatency::total        48729                       # average LockedRMWReadReq miss latency ((Tick/Count))
board.cache_hierarchy.l1_dcache.LockedRMWReadReq.mshrMisses::processor.cores.core.data            3                       # number of LockedRMWReadReq MSHR misses (Count)
board.cache_hierarchy.l1_dcache.LockedRMWReadReq.mshrMisses::total            3                       # number of LockedRMWReadReq MSHR misses (Count)
board.cache_hierarchy.l1_dcache.LockedRMWReadReq.mshrMissLatency::processor.cores.core.data       294372                       # number of LockedRMWReadReq MSHR miss ticks (Tick)
board.cache_hierarchy.l1_dcache.LockedRMWReadReq.mshrMissLatency::total       294372                       # number of LockedRMWReadReq MSHR miss ticks (Tick)
board.cache_hierarchy.l1_dcache.LockedRMWReadReq.mshrMissRate::processor.cores.core.data     0.250000                       # mshr miss rate for LockedRMWReadReq accesses (Ratio)
board.cache_hierarchy.l1_dcache.LockedRMWReadReq.mshrMissRate::total     0.250000                       # mshr miss rate for LockedRMWReadReq accesses (Ratio)
board.cache_hierarchy.l1_dcache.LockedRMWReadReq.avgMshrMissLatency::processor.cores.core.data        98124                       # average LockedRMWReadReq mshr miss latency ((Tick/Count))
board.cache_hierarchy.l1_dcache.LockedRMWReadReq.avgMshrMissLatency::total        98124                       # average LockedRMWReadReq mshr miss latency ((Tick/Count))
board.cache_hierarchy.l1_dcache.LockedRMWWriteReq.hits::processor.cores.core.data           12                       # number of LockedRMWWriteReq hits (Count)
board.cache_hierarchy.l1_dcache.LockedRMWWriteReq.hits::total           12                       # number of LockedRMWWriteReq hits (Count)
board.cache_hierarchy.l1_dcache.LockedRMWWriteReq.accesses::processor.cores.core.data           12                       # number of LockedRMWWriteReq accesses(hits+misses) (Count)
board.cache_hierarchy.l1_dcache.LockedRMWWriteReq.accesses::total           12                       # number of LockedRMWWriteReq accesses(hits+misses) (Count)
board.cache_hierarchy.l1_dcache.ReadReq.hits::processor.cores.core.data     34245076                       # number of ReadReq hits (Count)
board.cache_hierarchy.l1_dcache.ReadReq.hits::total     34245076                       # number of ReadReq hits (Count)
board.cache_hierarchy.l1_dcache.ReadReq.misses::processor.cores.core.data     16998657                       # number of ReadReq misses (Count)
board.cache_hierarchy.l1_dcache.ReadReq.misses::total     16998657                       # number of ReadReq misses (Count)
board.cache_hierarchy.l1_dcache.ReadReq.missLatency::processor.cores.core.data  80456886243                       # number of ReadReq miss ticks (Tick)
board.cache_hierarchy.l1_dcache.ReadReq.missLatency::total  80456886243                       # number of ReadReq miss ticks (Tick)
board.cache_hierarchy.l1_dcache.ReadReq.accesses::processor.cores.core.data     51243733                       # number of ReadReq accesses(hits+misses) (Count)
board.cache_hierarchy.l1_dcache.ReadReq.accesses::total     51243733                       # number of ReadReq accesses(hits+misses) (Count)
board.cache_hierarchy.l1_dcache.ReadReq.missRate::processor.cores.core.data     0.331722                       # miss rate for ReadReq accesses (Ratio)
board.cache_hierarchy.l1_dcache.ReadReq.missRate::total     0.331722                       # miss rate for ReadReq accesses (Ratio)
board.cache_hierarchy.l1_dcache.ReadReq.avgMissLatency::processor.cores.core.data  4733.131932                       # average ReadReq miss latency ((Tick/Count))
board.cache_hierarchy.l1_dcache.ReadReq.avgMissLatency::total  4733.131932                       # average ReadReq miss latency ((Tick/Count))
board.cache_hierarchy.l1_dcache.ReadReq.mshrHits::processor.cores.core.data            7                       # number of ReadReq MSHR hits (Count)
board.cache_hierarchy.l1_dcache.ReadReq.mshrHits::total            7                       # number of ReadReq MSHR hits (Count)
board.cache_hierarchy.l1_dcache.ReadReq.mshrMisses::processor.cores.core.data     16998650                       # number of ReadReq MSHR misses (Count)
board.cache_hierarchy.l1_dcache.ReadReq.mshrMisses::total     16998650                       # number of ReadReq MSHR misses (Count)
board.cache_hierarchy.l1_dcache.ReadReq.mshrMissLatency::processor.cores.core.data  74795959836                       # number of ReadReq MSHR miss ticks (Tick)
board.cache_hierarchy.l1_dcache.ReadReq.mshrMissLatency::total  74795959836                       # number of ReadReq MSHR miss ticks (Tick)
board.cache_hierarchy.l1_dcache.ReadReq.mshrMissRate::processor.cores.core.data     0.331722                       # mshr miss rate for ReadReq accesses (Ratio)
board.cache_hierarchy.l1_dcache.ReadReq.mshrMissRate::total     0.331722                       # mshr miss rate for ReadReq accesses (Ratio)
board.cache_hierarchy.l1_dcache.ReadReq.avgMshrMissLatency::processor.cores.core.data  4400.111764                       # average ReadReq mshr miss latency ((Tick/Count))
board.cache_hierarchy.l1_dcache.ReadReq.avgMshrMissLatency::total  4400.111764                       # average ReadReq mshr miss latency ((Tick/Count))
board.cache_hierarchy.l1_dcache.WriteReq.hits::processor.cores.core.data     16928242                       # number of WriteReq hits (Count)
board.cache_hierarchy.l1_dcache.WriteReq.hits::total     16928242                       # number of WriteReq hits (Count)
board.cache_hierarchy.l1_dcache.WriteReq.misses::processor.cores.core.data         4414                       # number of WriteReq misses (Count)
board.cache_hierarchy.l1_dcache.WriteReq.misses::total         4414                       # number of WriteReq misses (Count)
board.cache_hierarchy.l1_dcache.WriteReq.missLatency::processor.cores.core.data    170937891                       # number of WriteReq miss ticks (Tick)
board.cache_hierarchy.l1_dcache.WriteReq.missLatency::total    170937891                       # number of WriteReq miss ticks (Tick)
board.cache_hierarchy.l1_dcache.WriteReq.accesses::processor.cores.core.data     16932656                       # number of WriteReq accesses(hits+misses) (Count)
board.cache_hierarchy.l1_dcache.WriteReq.accesses::total     16932656                       # number of WriteReq accesses(hits+misses) (Count)
board.cache_hierarchy.l1_dcache.WriteReq.missRate::processor.cores.core.data     0.000261                       # miss rate for WriteReq accesses (Ratio)
board.cache_hierarchy.l1_dcache.WriteReq.missRate::total     0.000261                       # miss rate for WriteReq accesses (Ratio)
board.cache_hierarchy.l1_dcache.WriteReq.avgMissLatency::processor.cores.core.data 38726.300634                       # average WriteReq miss latency ((Tick/Count))
board.cache_hierarchy.l1_dcache.WriteReq.avgMissLatency::total 38726.300634                       # average WriteReq miss latency ((Tick/Count))
board.cache_hierarchy.l1_dcache.WriteReq.mshrHits::processor.cores.core.data         2170                       # number of WriteReq MSHR hits (Count)
board.cache_hierarchy.l1_dcache.WriteReq.mshrHits::total         2170                       # number of WriteReq MSHR hits (Count)
board.cache_hierarchy.l1_dcache.WriteReq.mshrMisses::processor.cores.core.data         2244                       # number of WriteReq MSHR misses (Count)
board.cache_hierarchy.l1_dcache.WriteReq.mshrMisses::total         2244                       # number of WriteReq MSHR misses (Count)
board.cache_hierarchy.l1_dcache.WriteReq.mshrMissLatency::processor.cores.core.data    136647216                       # number of WriteReq MSHR miss ticks (Tick)
board.cache_hierarchy.l1_dcache.WriteReq.mshrMissLatency::total    136647216                       # number of WriteReq MSHR miss ticks (Tick)
board.cache_hierarchy.l1_dcache.WriteReq.mshrMissRate::processor.cores.core.data     0.000133                       # mshr miss rate for WriteReq accesses (Ratio)
board.cache_hierarchy.l1_dcache.WriteReq.mshrMissRate::total     0.000133                       # mshr miss rate for WriteReq accesses (Ratio)
board.cache_hierarchy.l1_dcache.WriteReq.avgMshrMissLatency::processor.cores.core.data 60894.481283                       # average WriteReq mshr miss latency ((Tick/Count))
board.cache_hierarchy.l1_dcache.WriteReq.avgMshrMissLatency::total 60894.481283                       # average WriteReq mshr miss latency ((Tick/Count))
board.cache_hierarchy.l1_dcache.power_state.pwrStateResidencyTicks::UNDEFINED 155087915508                       # Cumulative time (in ticks) in various power states (Tick)
board.cache_hierarchy.l1_dcache.prefetcher.demandMshrMisses     17000894                       # demands not covered by prefetchs (Count)
board.cache_hierarchy.l1_dcache.prefetcher.pfIssued      5644657                       # number of hwpf issued (Count)
board.cache_hierarchy.l1_dcache.prefetcher.pfUnused       975786                       # number of HardPF blocks evicted w/o reference (Count)
board.cache_hierarchy.l1_dcache.prefetcher.pfUseful       874949                       # number of useful prefetch (Count)
board.cache_hierarchy.l1_dcache.prefetcher.pfUsefulButMiss            0                       # number of hit on prefetch but cache block is not in an usable state (Count)
board.cache_hierarchy.l1_dcache.prefetcher.accuracy     0.155005                       # accuracy of the prefetcher (Count)
board.cache_hierarchy.l1_dcache.prefetcher.coverage     0.048946                       # coverage brought by this prefetcher (Count)
board.cache_hierarchy.l1_dcache.prefetcher.pfHitInCache      3780186                       # number of prefetches hitting in cache (Count)
board.cache_hierarchy.l1_dcache.prefetcher.pfHitInMSHR        10820                       # number of prefetches hitting in a MSHR (Count)
board.cache_hierarchy.l1_dcache.prefetcher.pfHitInWB          739                       # number of prefetches hit in the Write Buffer (Count)
board.cache_hierarchy.l1_dcache.prefetcher.pfLate      3791745                       # number of late prefetches (hitting in cache, MSHR or WB) (Count)
board.cache_hierarchy.l1_dcache.prefetcher.pfIdentified      5644657                       # number of prefetch candidates identified (Count)
board.cache_hierarchy.l1_dcache.prefetcher.pfBufferHit            0                       # number of redundant prefetches already in prefetch queue (Count)
board.cache_hierarchy.l1_dcache.prefetcher.pfInCache            0                       # number of redundant prefetches already in cache/mshr dropped (Count)
board.cache_hierarchy.l1_dcache.prefetcher.pfRemovedDemand            0                       # number of prefetches dropped due to a demand for the same address (Count)
board.cache_hierarchy.l1_dcache.prefetcher.pfRemovedFull            0                       # number of prefetches dropped due to prefetch queue size (Count)
board.cache_hierarchy.l1_dcache.prefetcher.pfSpanPage       375227                       # number of prefetches that crossed the page (Count)
board.cache_hierarchy.l1_dcache.prefetcher.pfUsefulSpanPage       256600                       # number of prefetches that is useful and crossed the page (Count)
board.cache_hierarchy.l1_dcache.prefetcher.power_state.pwrStateResidencyTicks::UNDEFINED 155087915508                       # Cumulative time (in ticks) in various power states (Tick)
board.cache_hierarchy.l1_dcache.tags.tagsInUse    63.998319                       # Average ticks per tags in use ((Tick/Count))
board.cache_hierarchy.l1_dcache.tags.totalRefs     70027148                       # Total number of references to valid blocks. (Count)
board.cache_hierarchy.l1_dcache.tags.sampledRefs     18853809                       # Sample count of references to valid blocks. (Count)
board.cache_hierarchy.l1_dcache.tags.avgRefs     3.714218                       # Average number of references to valid blocks. ((Count/Count))
board.cache_hierarchy.l1_dcache.tags.warmupTick       138195                       # The tick when the warmup percentage was hit. (Tick)
board.cache_hierarchy.l1_dcache.tags.occupancies::cache_hierarchy.l1_dcache.prefetcher     6.659312                       # Average occupied blocks per tick, per requestor ((Count/Tick))
board.cache_hierarchy.l1_dcache.tags.occupancies::processor.cores.core.data    57.339007                       # Average occupied blocks per tick, per requestor ((Count/Tick))
board.cache_hierarchy.l1_dcache.tags.avgOccs::cache_hierarchy.l1_dcache.prefetcher     0.104052                       # Average percentage of cache occupancy ((Ratio/Tick))
board.cache_hierarchy.l1_dcache.tags.avgOccs::processor.cores.core.data     0.895922                       # Average percentage of cache occupancy ((Ratio/Tick))
board.cache_hierarchy.l1_dcache.tags.avgOccs::total     0.999974                       # Average percentage of cache occupancy ((Ratio/Tick))
board.cache_hierarchy.l1_dcache.tags.occupanciesTaskId::1024           64                       # Occupied blocks per task id (Count)
board.cache_hierarchy.l1_dcache.tags.ageTaskId_1024::0           48                       # Occupied blocks per task id, per block age (Count)
board.cache_hierarchy.l1_dcache.tags.ageTaskId_1024::1           16                       # Occupied blocks per task id, per block age (Count)
board.cache_hierarchy.l1_dcache.tags.ratioOccsTaskId::1024            1                       # Ratio of occupied blocks and all blocks, per task id (Ratio)
board.cache_hierarchy.l1_dcache.tags.tagAccesses    291559461                       # Number of tag accesses (Count)
board.cache_hierarchy.l1_dcache.tags.dataAccesses    291559461                       # Number of data accesses (Count)
board.cache_hierarchy.l1_dcache.tags.power_state.pwrStateResidencyTicks::UNDEFINED 155087915508                       # Cumulative time (in ticks) in various power states (Tick)
board.cache_hierarchy.l1_icache.demandHits::processor.cores.core.inst    172231487                       # number of demand (read+write) hits (Count)
board.cache_hierarchy.l1_icache.demandHits::total    172231487                       # number of demand (read+write) hits (Count)
board.cache_hierarchy.l1_icache.overallHits::processor.cores.core.inst    172231487                       # number of overall hits (Count)
board.cache_hierarchy.l1_icache.overallHits::total    172231487                       # number of overall hits (Count)
board.cache_hierarchy.l1_icache.demandMisses::processor.cores.core.inst         1712                       # number of demand (read+write) misses (Count)
board.cache_hierarchy.l1_icache.demandMisses::total         1712                       # number of demand (read+write) misses (Count)
board.cache_hierarchy.l1_icache.overallMisses::processor.cores.core.inst         1712                       # number of overall misses (Count)
board.cache_hierarchy.l1_icache.overallMisses::total         1712                       # number of overall misses (Count)
board.cache_hierarchy.l1_icache.demandMissLatency::processor.cores.core.inst     65359908                       # number of demand (read+write) miss ticks (Tick)
board.cache_hierarchy.l1_icache.demandMissLatency::total     65359908                       # number of demand (read+write) miss ticks (Tick)
board.cache_hierarchy.l1_icache.overallMissLatency::processor.cores.core.inst     65359908                       # number of overall miss ticks (Tick)
board.cache_hierarchy.l1_icache.overallMissLatency::total     65359908                       # number of overall miss ticks (Tick)
board.cache_hierarchy.l1_icache.demandAccesses::processor.cores.core.inst    172233199                       # number of demand (read+write) accesses (Count)
board.cache_hierarchy.l1_icache.demandAccesses::total    172233199                       # number of demand (read+write) accesses (Count)
board.cache_hierarchy.l1_icache.overallAccesses::processor.cores.core.inst    172233199                       # number of overall (read+write) accesses (Count)
board.cache_hierarchy.l1_icache.overallAccesses::total    172233199                       # number of overall (read+write) accesses (Count)
board.cache_hierarchy.l1_icache.demandMissRate::processor.cores.core.inst     0.000010                       # miss rate for demand accesses (Ratio)
board.cache_hierarchy.l1_icache.demandMissRate::total     0.000010                       # miss rate for demand accesses (Ratio)
board.cache_hierarchy.l1_icache.overallMissRate::processor.cores.core.inst     0.000010                       # miss rate for overall accesses (Ratio)
board.cache_hierarchy.l1_icache.overallMissRate::total     0.000010                       # miss rate for overall accesses (Ratio)
board.cache_hierarchy.l1_icache.demandAvgMissLatency::processor.cores.core.inst 38177.516355                       # average overall miss latency in ticks ((Tick/Count))
board.cache_hierarchy.l1_icache.demandAvgMissLatency::total 38177.516355                       # average overall miss latency in ticks ((Tick/Count))
board.cache_hierarchy.l1_icache.overallAvgMissLatency::processor.cores.core.inst 38177.516355                       # average overall miss latency ((Tick/Count))
board.cache_hierarchy.l1_icache.overallAvgMissLatency::total 38177.516355                       # average overall miss latency ((Tick/Count))
board.cache_hierarchy.l1_icache.blockedCycles::no_mshrs            0                       # number of cycles access was blocked (Cycle)
board.cache_hierarchy.l1_icache.blockedCycles::no_targets            0                       # number of cycles access was blocked (Cycle)
board.cache_hierarchy.l1_icache.blockedCauses::no_mshrs            0                       # number of times access was blocked (Count)
board.cache_hierarchy.l1_icache.blockedCauses::no_targets            0                       # number of times access was blocked (Count)
board.cache_hierarchy.l1_icache.avgBlocked::no_mshrs          nan                       # average number of cycles each access was blocked ((Cycle/Count))
board.cache_hierarchy.l1_icache.avgBlocked::no_targets          nan                       # average number of cycles each access was blocked ((Cycle/Count))
board.cache_hierarchy.l1_icache.demandMshrMisses::processor.cores.core.inst         1712                       # number of demand (read+write) MSHR misses (Count)
board.cache_hierarchy.l1_icache.demandMshrMisses::total         1712                       # number of demand (read+write) MSHR misses (Count)
board.cache_hierarchy.l1_icache.overallMshrMisses::processor.cores.core.inst         1712                       # number of overall MSHR misses (Count)
board.cache_hierarchy.l1_icache.overallMshrMisses::total         1712                       # number of overall MSHR misses (Count)
board.cache_hierarchy.l1_icache.demandMshrMissLatency::processor.cores.core.inst     64789812                       # number of demand (read+write) MSHR miss ticks (Tick)
board.cache_hierarchy.l1_icache.demandMshrMissLatency::total     64789812                       # number of demand (read+write) MSHR miss ticks (Tick)
board.cache_hierarchy.l1_icache.overallMshrMissLatency::processor.cores.core.inst     64789812                       # number of overall MSHR miss ticks (Tick)
board.cache_hierarchy.l1_icache.overallMshrMissLatency::total     64789812                       # number of overall MSHR miss ticks (Tick)
board.cache_hierarchy.l1_icache.demandMshrMissRate::processor.cores.core.inst     0.000010                       # mshr miss ratio for demand accesses (Ratio)
board.cache_hierarchy.l1_icache.demandMshrMissRate::total     0.000010                       # mshr miss ratio for demand accesses (Ratio)
board.cache_hierarchy.l1_icache.overallMshrMissRate::processor.cores.core.inst     0.000010                       # mshr miss ratio for overall accesses (Ratio)
board.cache_hierarchy.l1_icache.overallMshrMissRate::total     0.000010                       # mshr miss ratio for overall accesses (Ratio)
board.cache_hierarchy.l1_icache.demandAvgMshrMissLatency::processor.cores.core.inst 37844.516355                       # average overall mshr miss latency ((Tick/Count))
board.cache_hierarchy.l1_icache.demandAvgMshrMissLatency::total 37844.516355                       # average overall mshr miss latency ((Tick/Count))
board.cache_hierarchy.l1_icache.overallAvgMshrMissLatency::processor.cores.core.inst 37844.516355                       # average overall mshr miss latency ((Tick/Count))
board.cache_hierarchy.l1_icache.overallAvgMshrMissLatency::total 37844.516355                       # average overall mshr miss latency ((Tick/Count))
board.cache_hierarchy.l1_icache.replacements         1648                       # number of replacements (Count)
board.cache_hierarchy.l1_icache.ReadReq.hits::processor.cores.core.inst    172231487                       # number of ReadReq hits (Count)
board.cache_hierarchy.l1_icache.ReadReq.hits::total    172231487                       # number of ReadReq hits (Count)
board.cache_hierarchy.l1_icache.ReadReq.misses::processor.cores.core.inst         1712                       # number of ReadReq misses (Count)
board.cache_hierarchy.l1_icache.ReadReq.misses::total         1712                       # number of ReadReq misses (Count)
board.cache_hierarchy.l1_icache.ReadReq.missLatency::processor.cores.core.inst     65359908                       # number of ReadReq miss ticks (Tick)
board.cache_hierarchy.l1_icache.ReadReq.missLatency::total     65359908                       # number of ReadReq miss ticks (Tick)
board.cache_hierarchy.l1_icache.ReadReq.accesses::processor.cores.core.inst    172233199                       # number of ReadReq accesses(hits+misses) (Count)
board.cache_hierarchy.l1_icache.ReadReq.accesses::total    172233199                       # number of ReadReq accesses(hits+misses) (Count)
board.cache_hierarchy.l1_icache.ReadReq.missRate::processor.cores.core.inst     0.000010                       # miss rate for ReadReq accesses (Ratio)
board.cache_hierarchy.l1_icache.ReadReq.missRate::total     0.000010                       # miss rate for ReadReq accesses (Ratio)
board.cache_hierarchy.l1_icache.ReadReq.avgMissLatency::processor.cores.core.inst 38177.516355                       # average ReadReq miss latency ((Tick/Count))
board.cache_hierarchy.l1_icache.ReadReq.avgMissLatency::total 38177.516355                       # average ReadReq miss latency ((Tick/Count))
board.cache_hierarchy.l1_icache.ReadReq.mshrMisses::processor.cores.core.inst         1712                       # number of ReadReq MSHR misses (Count)
board.cache_hierarchy.l1_icache.ReadReq.mshrMisses::total         1712                       # number of ReadReq MSHR misses (Count)
board.cache_hierarchy.l1_icache.ReadReq.mshrMissLatency::processor.cores.core.inst     64789812                       # number of ReadReq MSHR miss ticks (Tick)
board.cache_hierarchy.l1_icache.ReadReq.mshrMissLatency::total     64789812                       # number of ReadReq MSHR miss ticks (Tick)
board.cache_hierarchy.l1_icache.ReadReq.mshrMissRate::processor.cores.core.inst     0.000010                       # mshr miss rate for ReadReq accesses (Ratio)
board.cache_hierarchy.l1_icache.ReadReq.mshrMissRate::total     0.000010                       # mshr miss rate for ReadReq accesses (Ratio)
board.cache_hierarchy.l1_icache.ReadReq.avgMshrMissLatency::processor.cores.core.inst 37844.516355                       # average ReadReq mshr miss latency ((Tick/Count))
board.cache_hierarchy.l1_icache.ReadReq.avgMshrMissLatency::total 37844.516355                       # average ReadReq mshr miss latency ((Tick/Count))
board.cache_hierarchy.l1_icache.power_state.pwrStateResidencyTicks::UNDEFINED 155087915508                       # Cumulative time (in ticks) in various power states (Tick)
board.cache_hierarchy.l1_icache.prefetcher.demandMshrMisses         1712                       # demands not covered by prefetchs (Count)
board.cache_hierarchy.l1_icache.prefetcher.pfIssued            0                       # number of hwpf issued (Count)
board.cache_hierarchy.l1_icache.prefetcher.pfUseful            0                       # number of useful prefetch (Count)
board.cache_hierarchy.l1_icache.prefetcher.pfUsefulButMiss            0                       # number of hit on prefetch but cache block is not in an usable state (Count)
board.cache_hierarchy.l1_icache.prefetcher.accuracy          nan                       # accuracy of the prefetcher (Count)
board.cache_hierarchy.l1_icache.prefetcher.coverage            0                       # coverage brought by this prefetcher (Count)
board.cache_hierarchy.l1_icache.prefetcher.pfHitInCache            0                       # number of prefetches hitting in cache (Count)
board.cache_hierarchy.l1_icache.prefetcher.pfHitInMSHR            0                       # number of prefetches hitting in a MSHR (Count)
board.cache_hierarchy.l1_icache.prefetcher.pfHitInWB            0                       # number of prefetches hit in the Write Buffer (Count)
board.cache_hierarchy.l1_icache.prefetcher.pfLate            0                       # number of late prefetches (hitting in cache, MSHR or WB) (Count)
board.cache_hierarchy.l1_icache.prefetcher.pfIdentified            0                       # number of prefetch candidates identified (Count)
board.cache_hierarchy.l1_icache.prefetcher.pfBufferHit            0                       # number of redundant prefetches already in prefetch queue (Count)
board.cache_hierarchy.l1_icache.prefetcher.pfInCache            0                       # number of redundant prefetches already in cache/mshr dropped (Count)
board.cache_hierarchy.l1_icache.prefetcher.pfRemovedDemand            0                       # number of prefetches dropped due to a demand for the same address (Count)
board.cache_hierarchy.l1_icache.prefetcher.pfRemovedFull            0                       # number of prefetches dropped due to prefetch queue size (Count)
board.cache_hierarchy.l1_icache.prefetcher.pfSpanPage            0                       # number of prefetches that crossed the page (Count)
board.cache_hierarchy.l1_icache.prefetcher.pfUsefulSpanPage            0                       # number of prefetches that is useful and crossed the page (Count)
board.cache_hierarchy.l1_icache.prefetcher.power_state.pwrStateResidencyTicks::UNDEFINED 155087915508                       # Cumulative time (in ticks) in various power states (Tick)
board.cache_hierarchy.l1_icache.tags.tagsInUse    63.998231                       # Average ticks per tags in use ((Tick/Count))
board.cache_hierarchy.l1_icache.tags.totalRefs    172233199                       # Total number of references to valid blocks. (Count)
board.cache_hierarchy.l1_icache.tags.sampledRefs         1712                       # Sample count of references to valid blocks. (Count)
board.cache_hierarchy.l1_icache.tags.avgRefs 100603.504089                       # Average number of references to valid blocks. ((Count/Count))
board.cache_hierarchy.l1_icache.tags.warmupTick        73260                       # The tick when the warmup percentage was hit. (Tick)
board.cache_hierarchy.l1_icache.tags.occupancies::processor.cores.core.inst    63.998231                       # Average occupied blocks per tick, per requestor ((Count/Tick))
board.cache_hierarchy.l1_icache.tags.avgOccs::processor.cores.core.inst     0.999972                       # Average percentage of cache occupancy ((Ratio/Tick))
board.cache_hierarchy.l1_icache.tags.avgOccs::total     0.999972                       # Average percentage of cache occupancy ((Ratio/Tick))
board.cache_hierarchy.l1_icache.tags.occupanciesTaskId::1024           64                       # Occupied blocks per task id (Count)
board.cache_hierarchy.l1_icache.tags.ageTaskId_1024::0           60                       # Occupied blocks per task id, per block age (Count)
board.cache_hierarchy.l1_icache.tags.ageTaskId_1024::1            4                       # Occupied blocks per task id, per block age (Count)
board.cache_hierarchy.l1_icache.tags.ratioOccsTaskId::1024            1                       # Ratio of occupied blocks and all blocks, per task id (Ratio)
board.cache_hierarchy.l1_icache.tags.tagAccesses    688934508                       # Number of tag accesses (Count)
board.cache_hierarchy.l1_icache.tags.dataAccesses    688934508                       # Number of data accesses (Count)
board.cache_hierarchy.l1_icache.tags.power_state.pwrStateResidencyTicks::UNDEFINED 155087915508                       # Cumulative time (in ticks) in various power states (Tick)
board.cache_hierarchy.l2_cache.demandHits::cache_hierarchy.l1_dcache.prefetcher      1838829                       # number of demand (read+write) hits (Count)
board.cache_hierarchy.l2_cache.demandHits::processor.cores.core.inst          585                       # number of demand (read+write) hits (Count)
board.cache_hierarchy.l2_cache.demandHits::processor.cores.core.data     16988916                       # number of demand (read+write) hits (Count)
board.cache_hierarchy.l2_cache.demandHits::total     18828330                       # number of demand (read+write) hits (Count)
board.cache_hierarchy.l2_cache.overallHits::cache_hierarchy.l1_dcache.prefetcher      1838829                       # number of overall hits (Count)
board.cache_hierarchy.l2_cache.overallHits::processor.cores.core.inst          585                       # number of overall hits (Count)
board.cache_hierarchy.l2_cache.overallHits::processor.cores.core.data     16988916                       # number of overall hits (Count)
board.cache_hierarchy.l2_cache.overallHits::total     18828330                       # number of overall hits (Count)
board.cache_hierarchy.l2_cache.demandMisses::cache_hierarchy.l1_dcache.prefetcher        14083                       # number of demand (read+write) misses (Count)
board.cache_hierarchy.l2_cache.demandMisses::processor.cores.core.inst         1127                       # number of demand (read+write) misses (Count)
board.cache_hierarchy.l2_cache.demandMisses::processor.cores.core.data        11981                       # number of demand (read+write) misses (Count)
board.cache_hierarchy.l2_cache.demandMisses::total        27191                       # number of demand (read+write) misses (Count)
board.cache_hierarchy.l2_cache.overallMisses::cache_hierarchy.l1_dcache.prefetcher        14083                       # number of overall misses (Count)
board.cache_hierarchy.l2_cache.overallMisses::processor.cores.core.inst         1127                       # number of overall misses (Count)
board.cache_hierarchy.l2_cache.overallMisses::processor.cores.core.data        11981                       # number of overall misses (Count)
board.cache_hierarchy.l2_cache.overallMisses::total        27191                       # number of overall misses (Count)
board.cache_hierarchy.l2_cache.demandMissLatency::cache_hierarchy.l1_dcache.prefetcher   1092778286                       # number of demand (read+write) miss ticks (Tick)
board.cache_hierarchy.l2_cache.demandMissLatency::processor.cores.core.inst     61472133                       # number of demand (read+write) miss ticks (Tick)
board.cache_hierarchy.l2_cache.demandMissLatency::processor.cores.core.data    906162597                       # number of demand (read+write) miss ticks (Tick)
board.cache_hierarchy.l2_cache.demandMissLatency::total   2060413016                       # number of demand (read+write) miss ticks (Tick)
board.cache_hierarchy.l2_cache.overallMissLatency::cache_hierarchy.l1_dcache.prefetcher   1092778286                       # number of overall miss ticks (Tick)
board.cache_hierarchy.l2_cache.overallMissLatency::processor.cores.core.inst     61472133                       # number of overall miss ticks (Tick)
board.cache_hierarchy.l2_cache.overallMissLatency::processor.cores.core.data    906162597                       # number of overall miss ticks (Tick)
board.cache_hierarchy.l2_cache.overallMissLatency::total   2060413016                       # number of overall miss ticks (Tick)
board.cache_hierarchy.l2_cache.demandAccesses::cache_hierarchy.l1_dcache.prefetcher      1852912                       # number of demand (read+write) accesses (Count)
board.cache_hierarchy.l2_cache.demandAccesses::processor.cores.core.inst         1712                       # number of demand (read+write) accesses (Count)
board.cache_hierarchy.l2_cache.demandAccesses::processor.cores.core.data     17000897                       # number of demand (read+write) accesses (Count)
board.cache_hierarchy.l2_cache.demandAccesses::total     18855521                       # number of demand (read+write) accesses (Count)
board.cache_hierarchy.l2_cache.overallAccesses::cache_hierarchy.l1_dcache.prefetcher      1852912                       # number of overall (read+write) accesses (Count)
board.cache_hierarchy.l2_cache.overallAccesses::processor.cores.core.inst         1712                       # number of overall (read+write) accesses (Count)
board.cache_hierarchy.l2_cache.overallAccesses::processor.cores.core.data     17000897                       # number of overall (read+write) accesses (Count)
board.cache_hierarchy.l2_cache.overallAccesses::total     18855521                       # number of overall (read+write) accesses (Count)
board.cache_hierarchy.l2_cache.demandMissRate::cache_hierarchy.l1_dcache.prefetcher     0.007600                       # miss rate for demand accesses (Ratio)
board.cache_hierarchy.l2_cache.demandMissRate::processor.cores.core.inst     0.658294                       # miss rate for demand accesses (Ratio)
board.cache_hierarchy.l2_cache.demandMissRate::processor.cores.core.data     0.000705                       # miss rate for demand accesses (Ratio)
board.cache_hierarchy.l2_cache.demandMissRate::total     0.001442                       # miss rate for demand accesses (Ratio)
board.cache_hierarchy.l2_cache.overallMissRate::cache_hierarchy.l1_dcache.prefetcher     0.007600                       # miss rate for overall accesses (Ratio)
board.cache_hierarchy.l2_cache.overallMissRate::processor.cores.core.inst     0.658294                       # miss rate for overall accesses (Ratio)
board.cache_hierarchy.l2_cache.overallMissRate::processor.cores.core.data     0.000705                       # miss rate for overall accesses (Ratio)
board.cache_hierarchy.l2_cache.overallMissRate::total     0.001442                       # miss rate for overall accesses (Ratio)
board.cache_hierarchy.l2_cache.demandAvgMissLatency::cache_hierarchy.l1_dcache.prefetcher 77595.561031                       # average overall miss latency in ticks ((Tick/Count))
board.cache_hierarchy.l2_cache.demandAvgMissLatency::processor.cores.core.inst 54544.927240                       # average overall miss latency in ticks ((Tick/Count))
board.cache_hierarchy.l2_cache.demandAvgMissLatency::processor.cores.core.data 75633.302479                       # average overall miss latency in ticks ((Tick/Count))
board.cache_hierarchy.l2_cache.demandAvgMissLatency::total 75775.551322                       # average overall miss latency in ticks ((Tick/Count))
board.cache_hierarchy.l2_cache.overallAvgMissLatency::cache_hierarchy.l1_dcache.prefetcher 77595.561031                       # average overall miss latency ((Tick/Count))
board.cache_hierarchy.l2_cache.overallAvgMissLatency::processor.cores.core.inst 54544.927240                       # average overall miss latency ((Tick/Count))
board.cache_hierarchy.l2_cache.overallAvgMissLatency::processor.cores.core.data 75633.302479                       # average overall miss latency ((Tick/Count))
board.cache_hierarchy.l2_cache.overallAvgMissLatency::total 75775.551322                       # average overall miss latency ((Tick/Count))
board.cache_hierarchy.l2_cache.blockedCycles::no_mshrs            0                       # number of cycles access was blocked (Cycle)
board.cache_hierarchy.l2_cache.blockedCycles::no_targets            0                       # number of cycles access was blocked (Cycle)
board.cache_hierarchy.l2_cache.blockedCauses::no_mshrs            0                       # number of times access was blocked (Count)
board.cache_hierarchy.l2_cache.blockedCauses::no_targets            0                       # number of times access was blocked (Count)
board.cache_hierarchy.l2_cache.avgBlocked::no_mshrs          nan                       # average number of cycles each access was blocked ((Cycle/Count))
board.cache_hierarchy.l2_cache.avgBlocked::no_targets          nan                       # average number of cycles each access was blocked ((Cycle/Count))
board.cache_hierarchy.l2_cache.writebacks::writebacks        29727                       # number of writebacks (Count)
board.cache_hierarchy.l2_cache.writebacks::total        29727                       # number of writebacks (Count)
board.cache_hierarchy.l2_cache.demandMshrHits::cache_hierarchy.l1_dcache.prefetcher        10759                       # number of demand (read+write) MSHR hits (Count)
board.cache_hierarchy.l2_cache.demandMshrHits::processor.cores.core.data            1                       # number of demand (read+write) MSHR hits (Count)
board.cache_hierarchy.l2_cache.demandMshrHits::total        10760                       # number of demand (read+write) MSHR hits (Count)
board.cache_hierarchy.l2_cache.overallMshrHits::cache_hierarchy.l1_dcache.prefetcher        10759                       # number of overall MSHR hits (Count)
board.cache_hierarchy.l2_cache.overallMshrHits::processor.cores.core.data            1                       # number of overall MSHR hits (Count)
board.cache_hierarchy.l2_cache.overallMshrHits::total        10760                       # number of overall MSHR hits (Count)
board.cache_hierarchy.l2_cache.demandMshrMisses::cache_hierarchy.l1_dcache.prefetcher         3324                       # number of demand (read+write) MSHR misses (Count)
board.cache_hierarchy.l2_cache.demandMshrMisses::processor.cores.core.inst         1127                       # number of demand (read+write) MSHR misses (Count)
board.cache_hierarchy.l2_cache.demandMshrMisses::processor.cores.core.data        11980                       # number of demand (read+write) MSHR misses (Count)
board.cache_hierarchy.l2_cache.demandMshrMisses::total        16431                       # number of demand (read+write) MSHR misses (Count)
board.cache_hierarchy.l2_cache.overallMshrMisses::cache_hierarchy.l1_dcache.prefetcher         3324                       # number of overall MSHR misses (Count)
board.cache_hierarchy.l2_cache.overallMshrMisses::cache_hierarchy.l2_cache.prefetcher        42508                       # number of overall MSHR misses (Count)
board.cache_hierarchy.l2_cache.overallMshrMisses::processor.cores.core.inst         1127                       # number of overall MSHR misses (Count)
board.cache_hierarchy.l2_cache.overallMshrMisses::processor.cores.core.data        11980                       # number of overall MSHR misses (Count)
board.cache_hierarchy.l2_cache.overallMshrMisses::total        58939                       # number of overall MSHR misses (Count)
board.cache_hierarchy.l2_cache.demandMshrMissLatency::cache_hierarchy.l1_dcache.prefetcher    336281535                       # number of demand (read+write) MSHR miss ticks (Tick)
board.cache_hierarchy.l2_cache.demandMshrMissLatency::processor.cores.core.inst     57719223                       # number of demand (read+write) MSHR miss ticks (Tick)
board.cache_hierarchy.l2_cache.demandMshrMissLatency::processor.cores.core.data    866218581                       # number of demand (read+write) MSHR miss ticks (Tick)
board.cache_hierarchy.l2_cache.demandMshrMissLatency::total   1260219339                       # number of demand (read+write) MSHR miss ticks (Tick)
board.cache_hierarchy.l2_cache.overallMshrMissLatency::cache_hierarchy.l1_dcache.prefetcher    336281535                       # number of overall MSHR miss ticks (Tick)
board.cache_hierarchy.l2_cache.overallMshrMissLatency::cache_hierarchy.l2_cache.prefetcher   3269972143                       # number of overall MSHR miss ticks (Tick)
board.cache_hierarchy.l2_cache.overallMshrMissLatency::processor.cores.core.inst     57719223                       # number of overall MSHR miss ticks (Tick)
board.cache_hierarchy.l2_cache.overallMshrMissLatency::processor.cores.core.data    866218581                       # number of overall MSHR miss ticks (Tick)
board.cache_hierarchy.l2_cache.overallMshrMissLatency::total   4530191482                       # number of overall MSHR miss ticks (Tick)
board.cache_hierarchy.l2_cache.demandMshrMissRate::cache_hierarchy.l1_dcache.prefetcher     0.001794                       # mshr miss ratio for demand accesses (Ratio)
board.cache_hierarchy.l2_cache.demandMshrMissRate::processor.cores.core.inst     0.658294                       # mshr miss ratio for demand accesses (Ratio)
board.cache_hierarchy.l2_cache.demandMshrMissRate::processor.cores.core.data     0.000705                       # mshr miss ratio for demand accesses (Ratio)
board.cache_hierarchy.l2_cache.demandMshrMissRate::total     0.000871                       # mshr miss ratio for demand accesses (Ratio)
board.cache_hierarchy.l2_cache.overallMshrMissRate::cache_hierarchy.l1_dcache.prefetcher     0.001794                       # mshr miss ratio for overall accesses (Ratio)
board.cache_hierarchy.l2_cache.overallMshrMissRate::cache_hierarchy.l2_cache.prefetcher          inf                       # mshr miss ratio for overall accesses (Ratio)
board.cache_hierarchy.l2_cache.overallMshrMissRate::processor.cores.core.inst     0.658294                       # mshr miss ratio for overall accesses (Ratio)
board.cache_hierarchy.l2_cache.overallMshrMissRate::processor.cores.core.data     0.000705                       # mshr miss ratio for overall accesses (Ratio)
board.cache_hierarchy.l2_cache.overallMshrMissRate::total     0.003126                       # mshr miss ratio for overall accesses (Ratio)
board.cache_hierarchy.l2_cache.demandAvgMshrMissLatency::cache_hierarchy.l1_dcache.prefetcher 101167.730144                       # average overall mshr miss latency ((Tick/Count))
board.cache_hierarchy.l2_cache.demandAvgMshrMissLatency::processor.cores.core.inst 51214.927240                       # average overall mshr miss latency ((Tick/Count))
board.cache_hierarchy.l2_cache.demandAvgMshrMissLatency::processor.cores.core.data 72305.390735                       # average overall mshr miss latency ((Tick/Count))
board.cache_hierarchy.l2_cache.demandAvgMshrMissLatency::total 76697.665328                       # average overall mshr miss latency ((Tick/Count))
board.cache_hierarchy.l2_cache.overallAvgMshrMissLatency::cache_hierarchy.l1_dcache.prefetcher 101167.730144                       # average overall mshr miss latency ((Tick/Count))
board.cache_hierarchy.l2_cache.overallAvgMshrMissLatency::cache_hierarchy.l2_cache.prefetcher 76926.040816                       # average overall mshr miss latency ((Tick/Count))
board.cache_hierarchy.l2_cache.overallAvgMshrMissLatency::processor.cores.core.inst 51214.927240                       # average overall mshr miss latency ((Tick/Count))
board.cache_hierarchy.l2_cache.overallAvgMshrMissLatency::processor.cores.core.data 72305.390735                       # average overall mshr miss latency ((Tick/Count))
board.cache_hierarchy.l2_cache.overallAvgMshrMissLatency::total 76862.374353                       # average overall mshr miss latency ((Tick/Count))
board.cache_hierarchy.l2_cache.replacements        54843                       # number of replacements (Count)
board.cache_hierarchy.l2_cache.CleanEvict.mshrMisses::writebacks           72                       # number of CleanEvict MSHR misses (Count)
board.cache_hierarchy.l2_cache.CleanEvict.mshrMisses::total           72                       # number of CleanEvict MSHR misses (Count)
board.cache_hierarchy.l2_cache.CleanEvict.mshrMissRate::writebacks          inf                       # mshr miss rate for CleanEvict accesses (Ratio)
board.cache_hierarchy.l2_cache.CleanEvict.mshrMissRate::total          inf                       # mshr miss rate for CleanEvict accesses (Ratio)
board.cache_hierarchy.l2_cache.HardPFReq.mshrMisses::cache_hierarchy.l2_cache.prefetcher        42508                       # number of HardPFReq MSHR misses (Count)
board.cache_hierarchy.l2_cache.HardPFReq.mshrMisses::total        42508                       # number of HardPFReq MSHR misses (Count)
board.cache_hierarchy.l2_cache.HardPFReq.mshrMissLatency::cache_hierarchy.l2_cache.prefetcher   3269972143                       # number of HardPFReq MSHR miss ticks (Tick)
board.cache_hierarchy.l2_cache.HardPFReq.mshrMissLatency::total   3269972143                       # number of HardPFReq MSHR miss ticks (Tick)
board.cache_hierarchy.l2_cache.HardPFReq.mshrMissRate::cache_hierarchy.l2_cache.prefetcher          inf                       # mshr miss rate for HardPFReq accesses (Ratio)
board.cache_hierarchy.l2_cache.HardPFReq.mshrMissRate::total          inf                       # mshr miss rate for HardPFReq accesses (Ratio)
board.cache_hierarchy.l2_cache.HardPFReq.avgMshrMissLatency::cache_hierarchy.l2_cache.prefetcher 76926.040816                       # average HardPFReq mshr miss latency ((Tick/Count))
board.cache_hierarchy.l2_cache.HardPFReq.avgMshrMissLatency::total 76926.040816                       # average HardPFReq mshr miss latency ((Tick/Count))
board.cache_hierarchy.l2_cache.ReadExReq.hits::processor.cores.core.data          699                       # number of ReadExReq hits (Count)
board.cache_hierarchy.l2_cache.ReadExReq.hits::total          699                       # number of ReadExReq hits (Count)
board.cache_hierarchy.l2_cache.ReadExReq.misses::processor.cores.core.data         1548                       # number of ReadExReq misses (Count)
board.cache_hierarchy.l2_cache.ReadExReq.misses::total         1548                       # number of ReadExReq misses (Count)
board.cache_hierarchy.l2_cache.ReadExReq.missLatency::processor.cores.core.data    132697836                       # number of ReadExReq miss ticks (Tick)
board.cache_hierarchy.l2_cache.ReadExReq.missLatency::total    132697836                       # number of ReadExReq miss ticks (Tick)
board.cache_hierarchy.l2_cache.ReadExReq.accesses::processor.cores.core.data         2247                       # number of ReadExReq accesses(hits+misses) (Count)
board.cache_hierarchy.l2_cache.ReadExReq.accesses::total         2247                       # number of ReadExReq accesses(hits+misses) (Count)
board.cache_hierarchy.l2_cache.ReadExReq.missRate::processor.cores.core.data     0.688919                       # miss rate for ReadExReq accesses (Ratio)
board.cache_hierarchy.l2_cache.ReadExReq.missRate::total     0.688919                       # miss rate for ReadExReq accesses (Ratio)
board.cache_hierarchy.l2_cache.ReadExReq.avgMissLatency::processor.cores.core.data 85722.116279                       # average ReadExReq miss latency ((Tick/Count))
board.cache_hierarchy.l2_cache.ReadExReq.avgMissLatency::total 85722.116279                       # average ReadExReq miss latency ((Tick/Count))
board.cache_hierarchy.l2_cache.ReadExReq.mshrMisses::processor.cores.core.data         1548                       # number of ReadExReq MSHR misses (Count)
board.cache_hierarchy.l2_cache.ReadExReq.mshrMisses::total         1548                       # number of ReadExReq MSHR misses (Count)
board.cache_hierarchy.l2_cache.ReadExReq.mshrMissLatency::processor.cores.core.data    127542996                       # number of ReadExReq MSHR miss ticks (Tick)
board.cache_hierarchy.l2_cache.ReadExReq.mshrMissLatency::total    127542996                       # number of ReadExReq MSHR miss ticks (Tick)
board.cache_hierarchy.l2_cache.ReadExReq.mshrMissRate::processor.cores.core.data     0.688919                       # mshr miss rate for ReadExReq accesses (Ratio)
board.cache_hierarchy.l2_cache.ReadExReq.mshrMissRate::total     0.688919                       # mshr miss rate for ReadExReq accesses (Ratio)
board.cache_hierarchy.l2_cache.ReadExReq.avgMshrMissLatency::processor.cores.core.data 82392.116279                       # average ReadExReq mshr miss latency ((Tick/Count))
board.cache_hierarchy.l2_cache.ReadExReq.avgMshrMissLatency::total 82392.116279                       # average ReadExReq mshr miss latency ((Tick/Count))
board.cache_hierarchy.l2_cache.ReadSharedReq.hits::cache_hierarchy.l1_dcache.prefetcher      1838829                       # number of ReadSharedReq hits (Count)
board.cache_hierarchy.l2_cache.ReadSharedReq.hits::processor.cores.core.inst          585                       # number of ReadSharedReq hits (Count)
board.cache_hierarchy.l2_cache.ReadSharedReq.hits::processor.cores.core.data     16988217                       # number of ReadSharedReq hits (Count)
board.cache_hierarchy.l2_cache.ReadSharedReq.hits::total     18827631                       # number of ReadSharedReq hits (Count)
board.cache_hierarchy.l2_cache.ReadSharedReq.misses::cache_hierarchy.l1_dcache.prefetcher        14083                       # number of ReadSharedReq misses (Count)
board.cache_hierarchy.l2_cache.ReadSharedReq.misses::processor.cores.core.inst         1127                       # number of ReadSharedReq misses (Count)
board.cache_hierarchy.l2_cache.ReadSharedReq.misses::processor.cores.core.data        10433                       # number of ReadSharedReq misses (Count)
board.cache_hierarchy.l2_cache.ReadSharedReq.misses::total        25643                       # number of ReadSharedReq misses (Count)
board.cache_hierarchy.l2_cache.ReadSharedReq.missLatency::cache_hierarchy.l1_dcache.prefetcher   1092778286                       # number of ReadSharedReq miss ticks (Tick)
board.cache_hierarchy.l2_cache.ReadSharedReq.missLatency::processor.cores.core.inst     61472133                       # number of ReadSharedReq miss ticks (Tick)
board.cache_hierarchy.l2_cache.ReadSharedReq.missLatency::processor.cores.core.data    773464761                       # number of ReadSharedReq miss ticks (Tick)
board.cache_hierarchy.l2_cache.ReadSharedReq.missLatency::total   1927715180                       # number of ReadSharedReq miss ticks (Tick)
board.cache_hierarchy.l2_cache.ReadSharedReq.accesses::cache_hierarchy.l1_dcache.prefetcher      1852912                       # number of ReadSharedReq accesses(hits+misses) (Count)
board.cache_hierarchy.l2_cache.ReadSharedReq.accesses::processor.cores.core.inst         1712                       # number of ReadSharedReq accesses(hits+misses) (Count)
board.cache_hierarchy.l2_cache.ReadSharedReq.accesses::processor.cores.core.data     16998650                       # number of ReadSharedReq accesses(hits+misses) (Count)
board.cache_hierarchy.l2_cache.ReadSharedReq.accesses::total     18853274                       # number of ReadSharedReq accesses(hits+misses) (Count)
board.cache_hierarchy.l2_cache.ReadSharedReq.missRate::cache_hierarchy.l1_dcache.prefetcher     0.007600                       # miss rate for ReadSharedReq accesses (Ratio)
board.cache_hierarchy.l2_cache.ReadSharedReq.missRate::processor.cores.core.inst     0.658294                       # miss rate for ReadSharedReq accesses (Ratio)
board.cache_hierarchy.l2_cache.ReadSharedReq.missRate::processor.cores.core.data     0.000614                       # miss rate for ReadSharedReq accesses (Ratio)
board.cache_hierarchy.l2_cache.ReadSharedReq.missRate::total     0.001360                       # miss rate for ReadSharedReq accesses (Ratio)
board.cache_hierarchy.l2_cache.ReadSharedReq.avgMissLatency::cache_hierarchy.l1_dcache.prefetcher 77595.561031                       # average ReadSharedReq miss latency ((Tick/Count))
board.cache_hierarchy.l2_cache.ReadSharedReq.avgMissLatency::processor.cores.core.inst 54544.927240                       # average ReadSharedReq miss latency ((Tick/Count))
board.cache_hierarchy.l2_cache.ReadSharedReq.avgMissLatency::processor.cores.core.data 74136.371226                       # average ReadSharedReq miss latency ((Tick/Count))
board.cache_hierarchy.l2_cache.ReadSharedReq.avgMissLatency::total 75175.103537                       # average ReadSharedReq miss latency ((Tick/Count))
board.cache_hierarchy.l2_cache.ReadSharedReq.mshrHits::cache_hierarchy.l1_dcache.prefetcher        10759                       # number of ReadSharedReq MSHR hits (Count)
board.cache_hierarchy.l2_cache.ReadSharedReq.mshrHits::processor.cores.core.data            1                       # number of ReadSharedReq MSHR hits (Count)
board.cache_hierarchy.l2_cache.ReadSharedReq.mshrHits::total        10760                       # number of ReadSharedReq MSHR hits (Count)
board.cache_hierarchy.l2_cache.ReadSharedReq.mshrMisses::cache_hierarchy.l1_dcache.prefetcher         3324                       # number of ReadSharedReq MSHR misses (Count)
board.cache_hierarchy.l2_cache.ReadSharedReq.mshrMisses::processor.cores.core.inst         1127                       # number of ReadSharedReq MSHR misses (Count)
board.cache_hierarchy.l2_cache.ReadSharedReq.mshrMisses::processor.cores.core.data        10432                       # number of ReadSharedReq MSHR misses (Count)
board.cache_hierarchy.l2_cache.ReadSharedReq.mshrMisses::total        14883                       # number of ReadSharedReq MSHR misses (Count)
board.cache_hierarchy.l2_cache.ReadSharedReq.mshrMissLatency::cache_hierarchy.l1_dcache.prefetcher    336281535                       # number of ReadSharedReq MSHR miss ticks (Tick)
board.cache_hierarchy.l2_cache.ReadSharedReq.mshrMissLatency::processor.cores.core.inst     57719223                       # number of ReadSharedReq MSHR miss ticks (Tick)
board.cache_hierarchy.l2_cache.ReadSharedReq.mshrMissLatency::processor.cores.core.data    738675585                       # number of ReadSharedReq MSHR miss ticks (Tick)
board.cache_hierarchy.l2_cache.ReadSharedReq.mshrMissLatency::total   1132676343                       # number of ReadSharedReq MSHR miss ticks (Tick)
board.cache_hierarchy.l2_cache.ReadSharedReq.mshrMissRate::cache_hierarchy.l1_dcache.prefetcher     0.001794                       # mshr miss rate for ReadSharedReq accesses (Ratio)
board.cache_hierarchy.l2_cache.ReadSharedReq.mshrMissRate::processor.cores.core.inst     0.658294                       # mshr miss rate for ReadSharedReq accesses (Ratio)
board.cache_hierarchy.l2_cache.ReadSharedReq.mshrMissRate::processor.cores.core.data     0.000614                       # mshr miss rate for ReadSharedReq accesses (Ratio)
board.cache_hierarchy.l2_cache.ReadSharedReq.mshrMissRate::total     0.000789                       # mshr miss rate for ReadSharedReq accesses (Ratio)
board.cache_hierarchy.l2_cache.ReadSharedReq.avgMshrMissLatency::cache_hierarchy.l1_dcache.prefetcher 101167.730144                       # average ReadSharedReq mshr miss latency ((Tick/Count))
board.cache_hierarchy.l2_cache.ReadSharedReq.avgMshrMissLatency::processor.cores.core.inst 51214.927240                       # average ReadSharedReq mshr miss latency ((Tick/Count))
board.cache_hierarchy.l2_cache.ReadSharedReq.avgMshrMissLatency::processor.cores.core.data 70808.625863                       # average ReadSharedReq mshr miss latency ((Tick/Count))
board.cache_hierarchy.l2_cache.ReadSharedReq.avgMshrMissLatency::total 76105.378150                       # average ReadSharedReq mshr miss latency ((Tick/Count))
board.cache_hierarchy.l2_cache.WritebackDirty.hits::writebacks       130754                       # number of WritebackDirty hits (Count)
board.cache_hierarchy.l2_cache.WritebackDirty.hits::total       130754                       # number of WritebackDirty hits (Count)
board.cache_hierarchy.l2_cache.WritebackDirty.accesses::writebacks       130754                       # number of WritebackDirty accesses(hits+misses) (Count)
board.cache_hierarchy.l2_cache.WritebackDirty.accesses::total       130754                       # number of WritebackDirty accesses(hits+misses) (Count)
board.cache_hierarchy.l2_cache.power_state.pwrStateResidencyTicks::UNDEFINED 155087915508                       # Cumulative time (in ticks) in various power states (Tick)
board.cache_hierarchy.l2_cache.prefetcher.demandMshrMisses        16431                       # demands not covered by prefetchs (Count)
board.cache_hierarchy.l2_cache.prefetcher.pfIssued       132816                       # number of hwpf issued (Count)
board.cache_hierarchy.l2_cache.prefetcher.pfUnused         5844                       # number of HardPF blocks evicted w/o reference (Count)
board.cache_hierarchy.l2_cache.prefetcher.pfUseful        25609                       # number of useful prefetch (Count)
board.cache_hierarchy.l2_cache.prefetcher.pfUsefulButMiss            0                       # number of hit on prefetch but cache block is not in an usable state (Count)
board.cache_hierarchy.l2_cache.prefetcher.accuracy     0.192816                       # accuracy of the prefetcher (Count)
board.cache_hierarchy.l2_cache.prefetcher.coverage     0.609158                       # coverage brought by this prefetcher (Count)
board.cache_hierarchy.l2_cache.prefetcher.pfHitInCache        67327                       # number of prefetches hitting in cache (Count)
board.cache_hierarchy.l2_cache.prefetcher.pfHitInMSHR        22981                       # number of prefetches hitting in a MSHR (Count)
board.cache_hierarchy.l2_cache.prefetcher.pfHitInWB            0                       # number of prefetches hit in the Write Buffer (Count)
board.cache_hierarchy.l2_cache.prefetcher.pfLate        90308                       # number of late prefetches (hitting in cache, MSHR or WB) (Count)
board.cache_hierarchy.l2_cache.prefetcher.pfIdentified       158879                       # number of prefetch candidates identified (Count)
board.cache_hierarchy.l2_cache.prefetcher.pfBufferHit        16368                       # number of redundant prefetches already in prefetch queue (Count)
board.cache_hierarchy.l2_cache.prefetcher.pfInCache            0                       # number of redundant prefetches already in cache/mshr dropped (Count)
board.cache_hierarchy.l2_cache.prefetcher.pfRemovedDemand         6574                       # number of prefetches dropped due to a demand for the same address (Count)
board.cache_hierarchy.l2_cache.prefetcher.pfRemovedFull            0                       # number of prefetches dropped due to prefetch queue size (Count)
board.cache_hierarchy.l2_cache.prefetcher.pfSpanPage        34849                       # number of prefetches that crossed the page (Count)
board.cache_hierarchy.l2_cache.prefetcher.pfUsefulSpanPage         5532                       # number of prefetches that is useful and crossed the page (Count)
board.cache_hierarchy.l2_cache.prefetcher.power_state.pwrStateResidencyTicks::UNDEFINED 155087915508                       # Cumulative time (in ticks) in various power states (Tick)
board.cache_hierarchy.l2_cache.tags.tagsInUse  4091.720261                       # Average ticks per tags in use ((Tick/Count))
board.cache_hierarchy.l2_cache.tags.totalRefs     37742590                       # Total number of references to valid blocks. (Count)
board.cache_hierarchy.l2_cache.tags.sampledRefs        58939                       # Sample count of references to valid blocks. (Count)
board.cache_hierarchy.l2_cache.tags.avgRefs   640.366990                       # Average number of references to valid blocks. ((Count/Count))
board.cache_hierarchy.l2_cache.tags.warmupTick        69597                       # The tick when the warmup percentage was hit. (Tick)
board.cache_hierarchy.l2_cache.tags.occupancies::cache_hierarchy.l1_dcache.prefetcher   214.572185                       # Average occupied blocks per tick, per requestor ((Count/Tick))
board.cache_hierarchy.l2_cache.tags.occupancies::cache_hierarchy.l2_cache.prefetcher  2572.709320                       # Average occupied blocks per tick, per requestor ((Count/Tick))
board.cache_hierarchy.l2_cache.tags.occupancies::processor.cores.core.inst     1.936778                       # Average occupied blocks per tick, per requestor ((Count/Tick))
board.cache_hierarchy.l2_cache.tags.occupancies::processor.cores.core.data  1302.501979                       # Average occupied blocks per tick, per requestor ((Count/Tick))
board.cache_hierarchy.l2_cache.tags.avgOccs::cache_hierarchy.l1_dcache.prefetcher     0.052386                       # Average percentage of cache occupancy ((Ratio/Tick))
board.cache_hierarchy.l2_cache.tags.avgOccs::cache_hierarchy.l2_cache.prefetcher     0.628103                       # Average percentage of cache occupancy ((Ratio/Tick))
board.cache_hierarchy.l2_cache.tags.avgOccs::processor.cores.core.inst     0.000473                       # Average percentage of cache occupancy ((Ratio/Tick))
board.cache_hierarchy.l2_cache.tags.avgOccs::processor.cores.core.data     0.317994                       # Average percentage of cache occupancy ((Ratio/Tick))
board.cache_hierarchy.l2_cache.tags.avgOccs::total     0.998955                       # Average percentage of cache occupancy ((Ratio/Tick))
board.cache_hierarchy.l2_cache.tags.occupanciesTaskId::1022         2421                       # Occupied blocks per task id (Count)
board.cache_hierarchy.l2_cache.tags.occupanciesTaskId::1024         1675                       # Occupied blocks per task id (Count)
board.cache_hierarchy.l2_cache.tags.ageTaskId_1022::1          266                       # Occupied blocks per task id, per block age (Count)
board.cache_hierarchy.l2_cache.tags.ageTaskId_1022::2          371                       # Occupied blocks per task id, per block age (Count)
board.cache_hierarchy.l2_cache.tags.ageTaskId_1022::3         1342                       # Occupied blocks per task id, per block age (Count)
board.cache_hierarchy.l2_cache.tags.ageTaskId_1022::4          442                       # Occupied blocks per task id, per block age (Count)
[...]
board.processor.cores.core.commitStats0.numOpsNotNOP            0                       # Number of Ops (including micro ops) Simulated (Count)
board.processor.cores.core.commitStats0.cpi     3.381404                       # CPI: cycles per instruction (thread level) ((Cycle/Count))
board.processor.cores.core.commitStats0.ipc     0.295735                       # IPC: instructions per cycle (thread level) ((Count/Cycle))
board.processor.cores.core.commitStats0.numMemRefs            0                       # Number of memory references committed (Count)
board.processor.cores.core.commitStats0.numFpInsts       281462                       # Number of float instructions (Count)
board.processor.cores.core.commitStats0.numIntInsts    239951507                       # Number of integer instructions (Count)
board.processor.cores.core.commitStats0.numLoadInsts     51243792                       # Number of load instructions (Count)
board.processor.cores.core.commitStats0.numStoreInsts     16932873                       # Number of store instructions (Count)
board.processor.cores.core.commitStats0.numVecInsts            0                       # Number of vector instructions (Count)
board.processor.cores.core.commitStats0.committedInstType::No_OpClass       271934      0.11%      0.11% # Class of committed instruction. (Count)
board.processor.cores.core.commitStats0.committedInstType::IntAlu    155126253     64.51%     64.62% # Class of committed instruction. (Count)
board.processor.cores.core.commitStats0.committedInstType::IntMult     16777904      6.98%     71.60% # Class of committed instruction. (Count)
board.processor.cores.core.commitStats0.committedInstType::IntDiv         1407      0.00%     71.60% # Class of committed instruction. (Count)
board.processor.cores.core.commitStats0.committedInstType::FloatAdd         2169      0.00%     71.60% # Class of committed instruction. (Count)
board.processor.cores.core.commitStats0.committedInstType::FloatCmp            0      0.00%     71.60% # Class of committed instruction. (Count)
board.processor.cores.core.commitStats0.committedInstType::FloatCvt            0      0.00%     71.60% # Class of committed instruction. (Count)
board.processor.cores.core.commitStats0.committedInstType::FloatMult            0      0.00%     71.60% # Class of committed instruction. (Count)
board.processor.cores.core.commitStats0.committedInstType::FloatMultAcc            0      0.00%     71.60% # Class of committed instruction. (Count)
board.processor.cores.core.commitStats0.committedInstType::FloatDiv            0      0.00%     71.60% # Class of committed instruction. (Count)
board.processor.cores.core.commitStats0.committedInstType::FloatMisc            0      0.00%     71.60% # Class of committed instruction. (Count)
board.processor.cores.core.commitStats0.committedInstType::FloatSqrt            0      0.00%     71.60% # Class of committed instruction. (Count)
board.processor.cores.core.commitStats0.committedInstType::SimdAdd        98698      0.04%     71.64% # Class of committed instruction. (Count)
board.processor.cores.core.commitStats0.committedInstType::SimdAddAcc            0      0.00%     71.64% # Class of committed instruction. (Count)
board.processor.cores.core.commitStats0.committedInstType::SimdAlu         2380      0.00%     71.65% # Class of committed instruction. (Count)
board.processor.cores.core.commitStats0.committedInstType::SimdCmp            0      0.00%     71.65% # Class of committed instruction. (Count)
board.processor.cores.core.commitStats0.committedInstType::SimdCvt          896      0.00%     71.65% # Class of committed instruction. (Count)
board.processor.cores.core.commitStats0.committedInstType::SimdMisc         3994      0.00%     71.65% # Class of committed instruction. (Count)
board.processor.cores.core.commitStats0.committedInstType::SimdMult            0      0.00%     71.65% # Class of committed instruction. (Count)
board.processor.cores.core.commitStats0.committedInstType::SimdMultAcc            0      0.00%     71.65% # Class of committed instruction. (Count)
board.processor.cores.core.commitStats0.committedInstType::SimdMatMultAcc            0      0.00%     71.65% # Class of committed instruction. (Count)
board.processor.cores.core.commitStats0.committedInstType::SimdShift          200      0.00%     71.65% # Class of committed instruction. (Count)
board.processor.cores.core.commitStats0.committedInstType::SimdShiftAcc            0      0.00%     71.65% # Class of committed instruction. (Count)
board.processor.cores.core.commitStats0.committedInstType::SimdDiv            0      0.00%     71.65% # Class of committed instruction. (Count)
board.processor.cores.core.commitStats0.committedInstType::SimdSqrt            0      0.00%     71.65% # Class of committed instruction. (Count)
board.processor.cores.core.commitStats0.committedInstType::SimdFloatAdd            0      0.00%     71.65% # Class of committed instruction. (Count)
board.processor.cores.core.commitStats0.committedInstType::SimdFloatAlu            0      0.00%     71.65% # Class of committed instruction. (Count)
board.processor.cores.core.commitStats0.committedInstType::SimdFloatCmp            0      0.00%     71.65% # Class of committed instruction. (Count)
board.processor.cores.core.commitStats0.committedInstType::SimdFloatCvt            0      0.00%     71.65% # Class of committed instruction. (Count)
board.processor.cores.core.commitStats0.committedInstType::SimdFloatDiv            0      0.00%     71.65% # Class of committed instruction. (Count)
board.processor.cores.core.commitStats0.committedInstType::SimdFloatMisc            0      0.00%     71.65% # Class of committed instruction. (Count)
board.processor.cores.core.commitStats0.committedInstType::SimdFloatMult            0      0.00%     71.65% # Class of committed instruction. (Count)
board.processor.cores.core.commitStats0.committedInstType::SimdFloatMultAcc            0      0.00%     71.65% # Class of committed instruction. (Count)
board.processor.cores.core.commitStats0.committedInstType::SimdFloatMatMultAcc            0      0.00%     71.65% # Class of committed instruction. (Count)
board.processor.cores.core.commitStats0.committedInstType::SimdFloatSqrt            0      0.00%     71.65% # Class of committed instruction. (Count)
board.processor.cores.core.commitStats0.committedInstType::SimdReduceAdd            0      0.00%     71.65% # Class of committed instruction. (Count)
board.processor.cores.core.commitStats0.committedInstType::SimdReduceAlu            0      0.00%     71.65% # Class of committed instruction. (Count)
board.processor.cores.core.commitStats0.committedInstType::SimdReduceCmp            0      0.00%     71.65% # Class of committed instruction. (Count)
board.processor.cores.core.commitStats0.committedInstType::SimdFloatReduceAdd            0      0.00%     71.65% # Class of committed instruction. (Count)
board.processor.cores.core.commitStats0.committedInstType::SimdFloatReduceCmp            0      0.00%     71.65% # Class of committed instruction. (Count)
board.processor.cores.core.commitStats0.committedInstType::SimdAes            0      0.00%     71.65% # Class of committed instruction. (Count)
board.processor.cores.core.commitStats0.committedInstType::SimdAesMix            0      0.00%     71.65% # Class of committed instruction. (Count)
board.processor.cores.core.commitStats0.committedInstType::SimdSha1Hash            0      0.00%     71.65% # Class of committed instruction. (Count)
board.processor.cores.core.commitStats0.committedInstType::SimdSha1Hash2            0      0.00%     71.65% # Class of committed instruction. (Count)
board.processor.cores.core.commitStats0.committedInstType::SimdSha256Hash            0      0.00%     71.65% # Class of committed instruction. (Count)
board.processor.cores.core.commitStats0.committedInstType::SimdSha256Hash2            0      0.00%     71.65% # Class of committed instruction. (Count)
board.processor.cores.core.commitStats0.committedInstType::SimdShaSigma2            0      0.00%     71.65% # Class of committed instruction. (Count)
board.processor.cores.core.commitStats0.committedInstType::SimdShaSigma3            0      0.00%     71.65% # Class of committed instruction. (Count)
board.processor.cores.core.commitStats0.committedInstType::SimdPredAlu            0      0.00%     71.65% # Class of committed instruction. (Count)
board.processor.cores.core.commitStats0.committedInstType::Matrix            0      0.00%     71.65% # Class of committed instruction. (Count)
board.processor.cores.core.commitStats0.committedInstType::MatrixMov            0      0.00%     71.65% # Class of committed instruction. (Count)
board.processor.cores.core.commitStats0.committedInstType::MatrixOP            0      0.00%     71.65% # Class of committed instruction. (Count)
board.processor.cores.core.commitStats0.committedInstType::MemRead     51241276     21.31%     92.96% # Class of committed instruction. (Count)
board.processor.cores.core.commitStats0.committedInstType::MemWrite     16862433      7.01%     99.97% # Class of committed instruction. (Count)
board.processor.cores.core.commitStats0.committedInstType::FloatMemRead         2516      0.00%     99.97% # Class of committed instruction. (Count)
board.processor.cores.core.commitStats0.committedInstType::FloatMemWrite        70440      0.03%    100.00% # Class of committed instruction. (Count)
board.processor.cores.core.commitStats0.committedInstType::IprAccess            0      0.00%    100.00% # Class of committed instruction. (Count)
board.processor.cores.core.commitStats0.committedInstType::InstPrefetch            0      0.00%    100.00% # Class of committed instruction. (Count)
board.processor.cores.core.commitStats0.committedInstType::SimdUnitStrideLoad            0      0.00%    100.00% # Class of committed instruction. (Count)
board.processor.cores.core.commitStats0.committedInstType::SimdUnitStrideStore            0      0.00%    100.00% # Class of committed instruction. (Count)
board.processor.cores.core.commitStats0.committedInstType::SimdUnitStrideMaskLoad            0      0.00%    100.00% # Class of committed instruction. (Count)
board.processor.cores.core.commitStats0.committedInstType::SimdUnitStrideMaskStore            0      0.00%    100.00% # Class of committed instruction. (Count)
board.processor.cores.core.commitStats0.committedInstType::SimdStridedLoad            0      0.00%    100.00% # Class of committed instruction. (Count)
board.processor.cores.core.commitStats0.committedInstType::SimdStridedStore            0      0.00%    100.00% # Class of committed instruction. (Count)
board.processor.cores.core.commitStats0.committedInstType::SimdIndexedLoad            0      0.00%    100.00% # Class of committed instruction. (Count)
board.processor.cores.core.commitStats0.committedInstType::SimdIndexedStore            0      0.00%    100.00% # Class of committed instruction. (Count)
board.processor.cores.core.commitStats0.committedInstType::SimdWholeRegisterLoad            0      0.00%    100.00% # Class of committed instruction. (Count)
board.processor.cores.core.commitStats0.committedInstType::SimdWholeRegisterStore            0      0.00%    100.00% # Class of committed instruction. (Count)
board.processor.cores.core.commitStats0.committedInstType::SimdUnitStrideFaultOnlyFirstLoad            0      0.00%    100.00% # Class of committed instruction. (Count)
board.processor.cores.core.commitStats0.committedInstType::SimdUnitStrideSegmentedLoad            0      0.00%    100.00% # Class of committed instruction. (Count)
board.processor.cores.core.commitStats0.committedInstType::SimdUnitStrideSegmentedStore            0      0.00%    100.00% # Class of committed instruction. (Count)
board.processor.cores.core.commitStats0.committedInstType::SimdExt            0      0.00%    100.00% # Class of committed instruction. (Count)
board.processor.cores.core.commitStats0.committedInstType::SimdFloatExt            0      0.00%    100.00% # Class of committed instruction. (Count)
board.processor.cores.core.commitStats0.committedInstType::SimdConfig            0      0.00%    100.00% # Class of committed instruction. (Count)
board.processor.cores.core.commitStats0.committedInstType::total    240462500                       # Class of committed instruction. (Count)
board.processor.cores.core.commitStats0.committedControl::IsControl     17446211                       # Class of control type instructions committed (Count)
board.processor.cores.core.commitStats0.committedControl::IsDirectControl     17438882                       # Class of control type instructions committed (Count)
board.processor.cores.core.commitStats0.committedControl::IsIndirectControl         7291                       # Class of control type instructions committed (Count)
board.processor.cores.core.commitStats0.committedControl::IsCondControl     17428209                       # Class of control type instructions committed (Count)
board.processor.cores.core.commitStats0.committedControl::IsUncondControl        17964                       # Class of control type instructions committed (Count)
board.processor.cores.core.commitStats0.committedControl::IsCall         5458                       # Class of control type instructions committed (Count)
board.processor.cores.core.commitStats0.committedControl::IsReturn         5453                       # Class of control type instructions committed (Count)
board.processor.cores.core.exec_context.thread_0.numMatAluAccesses            0                       # Number of matrix alu accesses (Count)
board.processor.cores.core.exec_context.thread_0.numCallsReturns        10911                       # Number of times a function call or return occured (Count)
board.processor.cores.core.exec_context.thread_0.numMatInsts            0                       # Number of matrix instructions (Count)
board.processor.cores.core.exec_context.thread_0.numIdleCycles     0.003003                       # Number of idle cycles (Cycle)
board.processor.cores.core.exec_context.thread_0.numBusyCycles 465729475.996997                       # Number of busy cycles (Cycle)
board.processor.cores.core.exec_context.thread_0.notIdleFraction     1.000000                       # Percentage of non-idle cycles (Ratio)
board.processor.cores.core.exec_context.thread_0.idleFraction     0.000000                       # Percentage of idle cycles (Ratio)
board.processor.cores.core.executeStats0.numInsts            0                       # Number of executed instructions (Count)
board.processor.cores.core.executeStats0.numNop            0                       # Number of nop insts executed (Count)
board.processor.cores.core.executeStats0.numBranches            0                       # Number of branches executed (Count)
board.processor.cores.core.executeStats0.numLoadInsts            0                       # Number of load instructions executed (Count)
board.processor.cores.core.executeStats0.numStoreInsts     68176665                       # Number of stores executed (Count)
board.processor.cores.core.executeStats0.instRate            0                       # Inst execution rate ((Count/Cycle))
board.processor.cores.core.executeStats0.numFpAluAccesses       281462                       # Number of float alu accesses (Count)
board.processor.cores.core.executeStats0.numFpRegReads       579894                       # Number of times the floating registers were read (Count)
board.processor.cores.core.executeStats0.numFpRegWrites       209783                       # Number of times the floating registers were written (Count)
board.processor.cores.core.executeStats0.numIntAluAccesses    239951507                       # Number of integer alu accesses (Count)
board.processor.cores.core.executeStats0.numIntRegReads    375157054                       # Number of times the integer registers were read (Count)
board.processor.cores.core.executeStats0.numIntRegWrites    188213305                       # Number of times the integer registers were written (Count)
board.processor.cores.core.executeStats0.numMemRefs     68176665                       # Number of memory refs (Count)
board.processor.cores.core.executeStats0.numMiscRegReads    103014324                       # Number of times the Misc registers were read (Count)
board.processor.cores.core.executeStats0.numVecAluAccesses            0                       # Number of vector alu accesses (Count)
board.processor.cores.core.executeStats0.numDiscardedOps            0                       # Number of ops (including micro ops) which were discarded before commit (Count)
board.processor.cores.core.fetchStats0.numInsts    137732584                       # Number of instructions fetched (thread level) (Count)
board.processor.cores.core.fetchStats0.numOps    240462500                       # Number of ops (including micro ops) fetched (thread level) (Count)
board.processor.cores.core.fetchStats0.fetchRate     0.295735                       # Number of inst fetches per cycle ((Count/Cycle))
board.processor.cores.core.fetchStats0.numBranches     17446211                       # Number of branches fetched (Count)
board.processor.cores.core.fetchStats0.branchRate     0.037460                       # Number of branch fetches per cycle (Ratio)
board.processor.cores.core.fetchStats0.numFetchSuspends            0                       # Number of times Execute suspended instruction fetching (Count)
board.processor.cores.core.interrupts.clk_domain.clock         5328                       # Clock period in ticks (Tick)
board.processor.cores.core.mmu.dtb.rdAccesses     51243795                       # TLB accesses on read requests (Count)
board.processor.cores.core.mmu.dtb.wrAccesses     16932874                       # TLB accesses on write requests (Count)
board.processor.cores.core.mmu.dtb.rdMisses         2913                       # TLB misses on read requests (Count)
board.processor.cores.core.mmu.dtb.wrMisses          619                       # TLB misses on write requests (Count)
board.processor.cores.core.mmu.dtb.walker.power_state.pwrStateResidencyTicks::UNDEFINED 155087915508                       # Cumulative time (in ticks) in various power states (Tick)
board.processor.cores.core.mmu.itb.rdAccesses            0                       # TLB accesses on read requests (Count)
board.processor.cores.core.mmu.itb.wrAccesses    172233233                       # TLB accesses on write requests (Count)
board.processor.cores.core.mmu.itb.rdMisses            0                       # TLB misses on read requests (Count)
board.processor.cores.core.mmu.itb.wrMisses          167                       # TLB misses on write requests (Count)
board.processor.cores.core.mmu.itb.walker.power_state.pwrStateResidencyTicks::UNDEFINED 155087915508                       # Cumulative time (in ticks) in various power states (Tick)
board.processor.cores.core.power_state.pwrStateResidencyTicks::ON 155087915508                       # Cumulative time (in ticks) in various power states (Tick)
board.processor.cores.core.thread_0.numInsts            0                       # Number of Instructions committed (Count)
board.processor.cores.core.thread_0.numOps            0                       # Number of Ops committed (Count)
board.processor.cores.core.thread_0.numMemRefs            0                       # Number of Memory References (Count)
board.processor.cores.core.workload.numSyscalls           38                       # Number of system calls (Count)
board.workload.inst.arm                             0                       # number of arm instructions executed (Count)
board.workload.inst.quiesce                         0                       # number of quiesce instructions executed (Count)

---------- End Simulation Statistics   ----------
