
---------- Begin Simulation Statistics ----------
simSeconds                                   0.051748                       # Number of seconds simulated (Second)
simTicks                                  51747752781                       # Number of ticks simulated (Tick)
finalTick                                 51747752781                       # Number of ticks from beginning of simulation (restored from checkpoints and never reset) (Tick)
simFreq                                  1000000000000                       # The number of ticks per simulated second ((Tick/Second))
hostSeconds                                    485.09                       # Real time elapsed on the host (Second)
hostTickRate                                106675539                       # The number of ticks simulated per host second (ticks/s) ((Tick/Second))
hostMemory                                    2772080                       # Number of bytes of host memory used (Byte)
simInsts                                     52250744                       # Number of instructions simulated (Count)
simOps                                       83895739                       # Number of ops (including micro ops) simulated (Count)
hostInstRate                                   107712                       # Simulator instruction rate (inst/s) ((Count/Second))
hostOpRate                                     172947                       # Simulator op (including micro ops) rate (op/s) ((Count/Second))
board.cache_hierarchy.ruby_system.delayHistogram::bucket_size         1024                       # delay histogram for all message (Unspecified)
board.cache_hierarchy.ruby_system.delayHistogram::max_bucket        10239                       # delay histogram for all message (Unspecified)
board.cache_hierarchy.ruby_system.delayHistogram::samples      5345294                       # delay histogram for all message (Unspecified)
board.cache_hierarchy.ruby_system.delayHistogram::mean     0.873724                       # delay histogram for all message (Unspecified)
board.cache_hierarchy.ruby_system.delayHistogram::stdev     5.825468                       # delay histogram for all message (Unspecified)
board.cache_hierarchy.ruby_system.delayHistogram |     5345283    100.00%    100.00% |           3      0.00%    100.00% |           2      0.00%    100.00% |           2      0.00%    100.00% |           2      0.00%    100.00% |           2      0.00%    100.00% |           0      0.00%    100.00% |           0      0.00%    100.00% |           0      0.00%    100.00% |           0      0.00%    100.00% # delay histogram for all message (Unspecified)
board.cache_hierarchy.ruby_system.delayHistogram::total      5345294                       # delay histogram for all message (Unspecified)
board.cache_hierarchy.ruby_system.m_outstandReqHistSeqr::bucket_size            1                       (Unspecified)
board.cache_hierarchy.ruby_system.m_outstandReqHistSeqr::max_bucket            9                       (Unspecified)
board.cache_hierarchy.ruby_system.m_outstandReqHistSeqr::samples     49933086                       (Unspecified)
board.cache_hierarchy.ruby_system.m_outstandReqHistSeqr::mean     1.216522                       (Unspecified)
board.cache_hierarchy.ruby_system.m_outstandReqHistSeqr::gmean     1.160106                       (Unspecified)
board.cache_hierarchy.ruby_system.m_outstandReqHistSeqr::stdev     0.424926                       (Unspecified)
board.cache_hierarchy.ruby_system.m_outstandReqHistSeqr |           0      0.00%      0.00% |    39394129     78.89%     78.89% |    10266278     20.56%     99.45% |      272679      0.55%    100.00% |           0      0.00%    100.00% |           0      0.00%    100.00% |           0      0.00%    100.00% |           0      0.00%    100.00% |           0      0.00%    100.00% |           0      0.00%    100.00% (Unspecified)
board.cache_hierarchy.ruby_system.m_outstandReqHistSeqr::total     49933086                       (Unspecified)
board.cache_hierarchy.ruby_system.m_latencyHistSeqr::bucket_size          256                       (Unspecified)
board.cache_hierarchy.ruby_system.m_latencyHistSeqr::max_bucket         2559                       (Unspecified)
board.cache_hierarchy.ruby_system.m_latencyHistSeqr::samples     49933123                       (Unspecified)
board.cache_hierarchy.ruby_system.m_latencyHistSeqr::mean     5.242939                       (Unspecified)
board.cache_hierarchy.ruby_system.m_latencyHistSeqr::gmean     1.088159                       (Unspecified)
board.cache_hierarchy.ruby_system.m_latencyHistSeqr::stdev    39.783155                       (Unspecified)
board.cache_hierarchy.ruby_system.m_latencyHistSeqr |    49581532     99.30%     99.30% |      281907      0.56%     99.86% |       56962      0.11%     99.97% |        6531      0.01%     99.99% |        4389      0.01%    100.00% |        1682      0.00%    100.00% |         117      0.00%    100.00% |           3      0.00%    100.00% |           0      0.00%    100.00% |           0      0.00%    100.00% (Unspecified)
board.cache_hierarchy.ruby_system.m_latencyHistSeqr::total     49933123                       (Unspecified)
board.cache_hierarchy.ruby_system.m_hitLatencyHistSeqr::bucket_size            1                       (Unspecified)
board.cache_hierarchy.ruby_system.m_hitLatencyHistSeqr::max_bucket            9                       (Unspecified)
board.cache_hierarchy.ruby_system.m_hitLatencyHistSeqr::samples     49163261                       (Unspecified)
board.cache_hierarchy.ruby_system.m_hitLatencyHistSeqr::mean     1.000001                       (Unspecified)
board.cache_hierarchy.ruby_system.m_hitLatencyHistSeqr::gmean     1.000001                       (Unspecified)
board.cache_hierarchy.ruby_system.m_hitLatencyHistSeqr::stdev     0.000868                       (Unspecified)
board.cache_hierarchy.ruby_system.m_hitLatencyHistSeqr |           0      0.00%      0.00% |    49163224    100.00%    100.00% |          37      0.00%    100.00% |           0      0.00%    100.00% |           0      0.00%    100.00% |           0      0.00%    100.00% |           0      0.00%    100.00% |           0      0.00%    100.00% |           0      0.00%    100.00% |           0      0.00%    100.00% (Unspecified)
board.cache_hierarchy.ruby_system.m_hitLatencyHistSeqr::total     49163261                       (Unspecified)
board.cache_hierarchy.ruby_system.m_missLatencyHistSeqr::bucket_size          256                       (Unspecified)
board.cache_hierarchy.ruby_system.m_missLatencyHistSeqr::max_bucket         2559                       (Unspecified)
board.cache_hierarchy.ruby_system.m_missLatencyHistSeqr::samples       769862                       (Unspecified)
board.cache_hierarchy.ruby_system.m_missLatencyHistSeqr::mean   276.196261                       (Unspecified)
board.cache_hierarchy.ruby_system.m_missLatencyHistSeqr::gmean   239.793888                       (Unspecified)
board.cache_hierarchy.ruby_system.m_missLatencyHistSeqr::stdev   167.595704                       (Unspecified)
board.cache_hierarchy.ruby_system.m_missLatencyHistSeqr |      418271     54.33%     54.33% |      281907     36.62%     90.95% |       56962      7.40%     98.35% |        6531      0.85%     99.20% |        4389      0.57%     99.77% |        1682      0.22%     99.98% |         117      0.02%    100.00% |           3      0.00%    100.00% |           0      0.00%    100.00% |           0      0.00%    100.00% (Unspecified)
board.cache_hierarchy.ruby_system.m_missLatencyHistSeqr::total       769862                       (Unspecified)
board.cache_hierarchy.ruby_system.delayVCHist.vnet_0::bucket_size         1024                       # delay histogram for vnet_0 (Unspecified)
board.cache_hierarchy.ruby_system.delayVCHist.vnet_0::max_bucket        10239                       # delay histogram for vnet_0 (Unspecified)
board.cache_hierarchy.ruby_system.delayVCHist.vnet_0::samples      1910485                       # delay histogram for vnet_0 (Unspecified)
board.cache_hierarchy.ruby_system.delayVCHist.vnet_0::mean     1.990614                       # delay histogram for vnet_0 (Unspecified)
board.cache_hierarchy.ruby_system.delayVCHist.vnet_0::stdev     9.465014                       # delay histogram for vnet_0 (Unspecified)
board.cache_hierarchy.ruby_system.delayVCHist.vnet_0 |     1910474    100.00%    100.00% |           3      0.00%    100.00% |           2      0.00%    100.00% |           2      0.00%    100.00% |           2      0.00%    100.00% |           2      0.00%    100.00% |           0      0.00%    100.00% |           0      0.00%    100.00% |           0      0.00%    100.00% |           0      0.00%    100.00% # delay histogram for vnet_0 (Unspecified)
board.cache_hierarchy.ruby_system.delayVCHist.vnet_0::total      1910485                       # delay histogram for vnet_0 (Unspecified)
board.cache_hierarchy.ruby_system.delayVCHist.vnet_1::bucket_size           16                       # delay histogram for vnet_1 (Unspecified)
board.cache_hierarchy.ruby_system.delayVCHist.vnet_1::max_bucket          159                       # delay histogram for vnet_1 (Unspecified)
board.cache_hierarchy.ruby_system.delayVCHist.vnet_1::samples      3052179                       # delay histogram for vnet_1 (Unspecified)
board.cache_hierarchy.ruby_system.delayVCHist.vnet_1::mean     0.283952                       # delay histogram for vnet_1 (Unspecified)
board.cache_hierarchy.ruby_system.delayVCHist.vnet_1::stdev     1.460177                       # delay histogram for vnet_1 (Unspecified)
board.cache_hierarchy.ruby_system.delayVCHist.vnet_1 |     3048959     99.89%     99.89% |        2969      0.10%     99.99% |         141      0.00%    100.00% |          36      0.00%    100.00% |          13      0.00%    100.00% |          24      0.00%    100.00% |          17      0.00%    100.00% |          20      0.00%    100.00% |           0      0.00%    100.00% |           0      0.00%    100.00% # delay histogram for vnet_1 (Unspecified)
board.cache_hierarchy.ruby_system.delayVCHist.vnet_1::total      3052179                       # delay histogram for vnet_1 (Unspecified)
board.cache_hierarchy.ruby_system.delayVCHist.vnet_2::bucket_size            1                       # delay histogram for vnet_2 (Unspecified)
board.cache_hierarchy.ruby_system.delayVCHist.vnet_2::max_bucket            9                       # delay histogram for vnet_2 (Unspecified)
board.cache_hierarchy.ruby_system.delayVCHist.vnet_2::samples       382630                       # delay histogram for vnet_2 (Unspecified)
board.cache_hierarchy.ruby_system.delayVCHist.vnet_2::mean     0.001573                       # delay histogram for vnet_2 (Unspecified)
board.cache_hierarchy.ruby_system.delayVCHist.vnet_2::stdev     0.056073                       # delay histogram for vnet_2 (Unspecified)
board.cache_hierarchy.ruby_system.delayVCHist.vnet_2 |      382329     99.92%     99.92% |           0      0.00%     99.92% |         301      0.08%    100.00% |           0      0.00%    100.00% |           0      0.00%    100.00% |           0      0.00%    100.00% |           0      0.00%    100.00% |           0      0.00%    100.00% |           0      0.00%    100.00% |           0      0.00%    100.00% # delay histogram for vnet_2 (Unspecified)
board.cache_hierarchy.ruby_system.delayVCHist.vnet_2::total       382630                       # delay histogram for vnet_2 (Unspecified)
board.cache_hierarchy.ruby_system.Directory_Controller.Fetch       760566      0.00%      0.00% (Unspecified)
board.cache_hierarchy.ruby_system.Directory_Controller.Data       502472      0.00%      0.00% (Unspecified)
board.cache_hierarchy.ruby_system.Directory_Controller.Memory_Data       760566      0.00%      0.00% (Unspecified)
board.cache_hierarchy.ruby_system.Directory_Controller.Memory_Ack       502472      0.00%      0.00% (Unspecified)
board.cache_hierarchy.ruby_system.Directory_Controller.CleanReplacement       253999      0.00%      0.00% (Unspecified)
board.cache_hierarchy.ruby_system.Directory_Controller.I.Fetch       760566      0.00%      0.00% (Unspecified)
board.cache_hierarchy.ruby_system.Directory_Controller.M.Data       502472      0.00%      0.00% (Unspecified)
board.cache_hierarchy.ruby_system.Directory_Controller.M.CleanReplacement       253999      0.00%      0.00% (Unspecified)
board.cache_hierarchy.ruby_system.Directory_Controller.IM.Memory_Data       760566      0.00%      0.00% (Unspecified)
board.cache_hierarchy.ruby_system.Directory_Controller.MI.Memory_Ack       502472      0.00%      0.00% (Unspecified)
board.cache_hierarchy.ruby_system.L1Cache_Controller.Load |    15637334     63.45%     63.45% |      611685      2.48%     65.94% |      609498      2.47%     68.41% |      609049      2.47%     70.88% |      604279      2.45%     73.33% |      607775      2.47%     75.80% |      607382      2.46%     78.26% |      602140      2.44%     80.71% |      605406      2.46%     83.16% |      598869      2.43%     85.59% |      594230      2.41%     88.01% |      594600      2.41%     90.42% |      591465      2.40%     92.82% |      590557      2.40%     95.21% |      585919      2.38%     97.59% |      593414      2.41%    100.00% (Unspecified)
board.cache_hierarchy.ruby_system.L1Cache_Controller.Load::total     24643602                       (Unspecified)
board.cache_hierarchy.ruby_system.L1Cache_Controller.Ifetch |     9362684     68.05%     68.05% |      308152      2.24%     70.29% |      304879      2.22%     72.51% |      304209      2.21%     74.72% |      297081      2.16%     76.88% |      302743      2.20%     79.08% |      302539      2.20%     81.28% |      295054      2.14%     83.42% |      300306      2.18%     85.61% |      290932      2.11%     87.72% |      284369      2.07%     89.79% |      285268      2.07%     91.86% |      280945      2.04%     93.90% |      280059      2.04%     95.94% |      273517      1.99%     97.93% |      285121      2.07%    100.00% (Unspecified)
board.cache_hierarchy.ruby_system.L1Cache_Controller.Ifetch::total     13757858                       (Unspecified)
board.cache_hierarchy.ruby_system.L1Cache_Controller.Store |     8833196     76.60%     76.60% |      179902      1.56%     78.16% |      179900      1.56%     79.72% |      179899      1.56%     81.28% |      179896      1.56%     82.84% |      179904      1.56%     84.40% |      179895      1.56%     85.96% |      179899      1.56%     87.52% |      179909      1.56%     89.08% |      179892      1.56%     90.64% |      179897      1.56%     92.20% |      179901      1.56%     93.76% |      179894      1.56%     95.32% |      179897      1.56%     96.88% |      179893      1.56%     98.44% |      179889      1.56%    100.00% (Unspecified)
board.cache_hierarchy.ruby_system.L1Cache_Controller.Store::total     11531663                       (Unspecified)
board.cache_hierarchy.ruby_system.L1Cache_Controller.Inv |       26482      6.93%      6.93% |       23981      6.27%     13.20% |       23799      6.22%     19.42% |       24016      6.28%     25.71% |       23652      6.19%     31.89% |       23991      6.28%     38.17% |       24040      6.29%     44.46% |       23739      6.21%     50.66% |       23724      6.21%     56.87% |       23676      6.19%     63.06% |       23568      6.16%     69.23% |       23615      6.18%     75.40% |       23428      6.13%     81.53% |       23399      6.12%     87.65% |       23552      6.16%     93.81% |       23655      6.19%    100.00% (Unspecified)
board.cache_hierarchy.ruby_system.L1Cache_Controller.Inv::total       382317                       (Unspecified)
board.cache_hierarchy.ruby_system.L1Cache_Controller.L1_Replacement |      403046     53.88%     53.88% |       22999      3.07%     56.96% |       22996      3.07%     60.03% |       22999      3.07%     63.11% |       22996      3.07%     66.18% |       22999      3.07%     69.25% |       22996      3.07%     72.33% |       22999      3.07%     75.40% |       22996      3.07%     78.48% |       22999      3.07%     81.55% |       22996      3.07%     84.63% |       22999      3.07%     87.70% |       22996      3.07%     90.78% |       22999      3.07%     93.85% |       23000      3.07%     96.93% |       22998      3.07%    100.00% (Unspecified)
board.cache_hierarchy.ruby_system.L1Cache_Controller.L1_Replacement::total       748013                       (Unspecified)
board.cache_hierarchy.ruby_system.L1Cache_Controller.Fwd_GETX |          64     48.85%     48.85% |           5      3.82%     52.67% |           5      3.82%     56.49% |           5      3.82%     60.31% |           5      3.82%     64.12% |           4      3.05%     67.18% |           5      3.82%     70.99% |           4      3.05%     74.05% |           5      3.82%     77.86% |           5      3.82%     81.68% |           5      3.82%     85.50% |           5      3.82%     89.31% |           5      3.82%     93.13% |           4      3.05%     96.18% |           4      3.05%     99.24% |           1      0.76%    100.00% (Unspecified)
board.cache_hierarchy.ruby_system.L1Cache_Controller.Fwd_GETX::total          131                       (Unspecified)
board.cache_hierarchy.ruby_system.L1Cache_Controller.Fwd_GETS |         162     89.01%     89.01% |          13      7.14%     96.15% |           1      0.55%     96.70% |           1      0.55%     97.25% |           1      0.55%     97.80% |           1      0.55%     98.35% |           0      0.00%     98.35% |           0      0.00%     98.35% |           0      0.00%     98.35% |           0      0.00%     98.35% |           0      0.00%     98.35% |           0      0.00%     98.35% |           0      0.00%     98.35% |           0      0.00%     98.35% |           2      1.10%     99.45% |           1      0.55%    100.00% (Unspecified)
board.cache_hierarchy.ruby_system.L1Cache_Controller.Fwd_GETS::total          182                       (Unspecified)
board.cache_hierarchy.ruby_system.L1Cache_Controller.Data |           1    100.00%    100.00% |           0      0.00%    100.00% |           0      0.00%    100.00% |           0      0.00%    100.00% |           0      0.00%    100.00% |           0      0.00%    100.00% |           0      0.00%    100.00% |           0      0.00%    100.00% |           0      0.00%    100.00% |           0      0.00%    100.00% |           0      0.00%    100.00% |           0      0.00%    100.00% |           0      0.00%    100.00% |           0      0.00%    100.00% |           0      0.00%    100.00% |           0      0.00%    100.00% (Unspecified)
board.cache_hierarchy.ruby_system.L1Cache_Controller.Data::total            1                       (Unspecified)
board.cache_hierarchy.ruby_system.L1Cache_Controller.Data_Exclusive |       17628      6.90%      6.90% |       15958      6.25%     13.16% |       15807      6.19%     19.35% |       15938      6.24%     25.59% |       15803      6.19%     31.78% |       15930      6.24%     38.02% |       15935      6.24%     44.26% |       15816      6.20%     50.46% |       15776      6.18%     56.64% |       15804      6.19%     62.83% |       15776      6.18%     69.01% |       15785      6.18%     75.19% |       15789      6.18%     81.37% |       15807      6.19%     87.57% |       15932      6.24%     93.81% |       15814      6.19%    100.00% (Unspecified)
board.cache_hierarchy.ruby_system.L1Cache_Controller.Data_Exclusive::total       255298                       (Unspecified)
board.cache_hierarchy.ruby_system.L1Cache_Controller.DataS_fromL1 |           1      0.55%      0.55% |          22     12.09%     12.64% |          22     12.09%     24.73% |          11      6.04%     30.77% |          10      5.49%     36.26% |          10      5.49%     41.76% |          11      6.04%     47.80% |           9      4.95%     52.75% |          10      5.49%     58.24% |          10      5.49%     63.74% |          10      5.49%     69.23% |          11      6.04%     75.27% |          11      6.04%     81.32% |          11      6.04%     87.36% |          12      6.59%     93.96% |          11      6.04%    100.00% (Unspecified)
board.cache_hierarchy.ruby_system.L1Cache_Controller.DataS_fromL1::total          182                       (Unspecified)
board.cache_hierarchy.ruby_system.L1Cache_Controller.Data_all_Acks |      387697     75.38%     75.38% |        8426      1.64%     77.02% |        8420      1.64%     78.65% |        8460      1.64%     80.30% |        8441      1.64%     81.94% |        8470      1.65%     83.59% |        8461      1.65%     85.23% |        8431      1.64%     86.87% |        8440      1.64%     88.51% |        8444      1.64%     90.15% |        8442      1.64%     91.79% |        8435      1.64%     93.43% |        8428      1.64%     95.07% |        8439      1.64%     96.71% |        8470      1.65%     98.36% |        8430      1.64%    100.00% (Unspecified)
board.cache_hierarchy.ruby_system.L1Cache_Controller.Data_all_Acks::total       514334                       (Unspecified)
board.cache_hierarchy.ruby_system.L1Cache_Controller.Ack |          23     27.71%     27.71% |           2      2.41%     30.12% |           2      2.41%     32.53% |           2      2.41%     34.94% |           2      2.41%     37.35% |           2      2.41%     39.76% |           2      2.41%     42.17% |           2      2.41%     44.58% |           2      2.41%     46.99% |           2      2.41%     49.40% |           2      2.41%     51.81% |           2      2.41%     54.22% |           2      2.41%     56.63% |           2      2.41%     59.04% |          17     20.48%     79.52% |          17     20.48%    100.00% (Unspecified)
board.cache_hierarchy.ruby_system.L1Cache_Controller.Ack::total           83                       (Unspecified)
board.cache_hierarchy.ruby_system.L1Cache_Controller.Ack_all |          16     33.33%     33.33% |           2      4.17%     37.50% |           2      4.17%     41.67% |           2      4.17%     45.83% |           2      4.17%     50.00% |           2      4.17%     54.17% |           2      4.17%     58.33% |           2      4.17%     62.50% |           2      4.17%     66.67% |           2      4.17%     70.83% |           2      4.17%     75.00% |           2      4.17%     79.17% |           2      4.17%     83.33% |           2      4.17%     87.50% |           3      6.25%     93.75% |           3      6.25%    100.00% (Unspecified)
board.cache_hierarchy.ruby_system.L1Cache_Controller.Ack_all::total           48                       (Unspecified)
board.cache_hierarchy.ruby_system.L1Cache_Controller.WB_Ack |      377720     98.68%     98.68% |         378      0.10%     98.78% |         338      0.09%     98.86% |         297      0.08%     98.94% |         375      0.10%     99.04% |         308      0.08%     99.12% |         311      0.08%     99.20% |         300      0.08%     99.28% |         376      0.10%     99.38% |         310      0.08%     99.46% |         285      0.07%     99.53% |         306      0.08%     99.61% |         388      0.10%     99.72% |         423      0.11%     99.83% |         372      0.10%     99.92% |         294      0.08%    100.00% (Unspecified)
board.cache_hierarchy.ruby_system.L1Cache_Controller.WB_Ack::total       382781                       (Unspecified)
board.cache_hierarchy.ruby_system.L1Cache_Controller.NP.Load |       17376      6.88%      6.88% |       15671      6.21%     13.09% |       15669      6.21%     19.30% |       15671      6.21%     25.51% |       15669      6.21%     31.71% |       15671      6.21%     37.92% |       15669      6.21%     44.13% |       15671      6.21%     50.34% |       15669      6.21%     56.55% |       15671      6.21%     62.75% |       15669      6.21%     68.96% |       15671      6.21%     75.17% |       15669      6.21%     81.38% |       15671      6.21%     87.58% |       15672      6.21%     93.79% |       15670      6.21%    100.00% (Unspecified)
board.cache_hierarchy.ruby_system.L1Cache_Controller.NP.Load::total       252429                       (Unspecified)
board.cache_hierarchy.ruby_system.L1Cache_Controller.NP.Ifetch |        2691     52.56%     52.56% |         160      3.12%     55.68% |         161      3.14%     58.83% |         162      3.16%     61.99% |         162      3.16%     65.16% |         162      3.16%     68.32% |         162      3.16%     71.48% |         161      3.14%     74.63% |         162      3.16%     77.79% |         163      3.18%     80.98% |         162      3.16%     84.14% |         162      3.16%     87.30% |         162      3.16%     90.47% |         162      3.16%     93.63% |         164      3.20%     96.84% |         162      3.16%    100.00% (Unspecified)
board.cache_hierarchy.ruby_system.L1Cache_Controller.NP.Ifetch::total         5120                       (Unspecified)
board.cache_hierarchy.ruby_system.L1Cache_Controller.NP.Store |      384003     76.56%     76.56% |        7840      1.56%     78.12% |        7839      1.56%     79.68% |        7840      1.56%     81.24% |        7839      1.56%     82.81% |        7840      1.56%     84.37% |        7839      1.56%     85.93% |        7840      1.56%     87.50% |        7839      1.56%     89.06% |        7840      1.56%     90.62% |        7839      1.56%     92.19% |        7840      1.56%     93.75% |        7839      1.56%     95.31% |        7840      1.56%     96.87% |        7840      1.56%     98.44% |        7840      1.56%    100.00% (Unspecified)
board.cache_hierarchy.ruby_system.L1Cache_Controller.NP.Store::total       501597                       (Unspecified)
board.cache_hierarchy.ruby_system.L1Cache_Controller.NP.Inv |        1237     99.52%     99.52% |           2      0.16%     99.68% |           1      0.08%     99.76% |           1      0.08%     99.84% |           0      0.00%     99.84% |           0      0.00%     99.84% |           0      0.00%     99.84% |           0      0.00%     99.84% |           0      0.00%     99.84% |           0      0.00%     99.84% |           0      0.00%     99.84% |           0      0.00%     99.84% |           0      0.00%     99.84% |           1      0.08%     99.92% |           1      0.08%    100.00% |           0      0.00%    100.00% (Unspecified)
board.cache_hierarchy.ruby_system.L1Cache_Controller.NP.Inv::total         1243                       (Unspecified)
board.cache_hierarchy.ruby_system.L1Cache_Controller.I.Load |         260      7.47%      7.47% |         316      9.08%     16.55% |         179      5.14%     21.69% |         308      8.85%     30.54% |         175      5.03%     35.56% |         300      8.62%     44.18% |         307      8.82%     53.00% |         185      5.31%     58.32% |         148      4.25%     62.57% |         174      5.00%     67.57% |         148      4.25%     71.82% |         156      4.48%     76.30% |         162      4.65%     80.95% |         178      5.11%     86.07% |         302      8.68%     94.74% |         183      5.26%    100.00% (Unspecified)
board.cache_hierarchy.ruby_system.L1Cache_Controller.I.Load::total         3481                       (Unspecified)
board.cache_hierarchy.ruby_system.L1Cache_Controller.I.Ifetch |         876     13.54%     13.54% |         370      5.72%     19.26% |         371      5.73%     24.99% |         371      5.73%     30.73% |         374      5.78%     36.51% |         372      5.75%     42.26% |         372      5.75%     48.01% |         374      5.78%     53.79% |         372      5.75%     59.54% |         374      5.78%     65.32% |         374      5.78%     71.10% |         374      5.78%     76.88% |         374      5.78%     82.66% |         374      5.78%     88.44% |         374      5.78%     94.22% |         374      5.78%    100.00% (Unspecified)
board.cache_hierarchy.ruby_system.L1Cache_Controller.I.Ifetch::total         6470                       (Unspecified)
board.cache_hierarchy.ruby_system.L1Cache_Controller.I.Store |         121     16.85%     16.85% |          49      6.82%     23.68% |          30      4.18%     27.86% |          57      7.94%     35.79% |          35      4.87%     40.67% |          65      9.05%     49.72% |          58      8.08%     57.80% |          25      3.48%     61.28% |          36      5.01%     66.30% |          36      5.01%     71.31% |          36      5.01%     76.32% |          28      3.90%     80.22% |          22      3.06%     83.29% |          32      4.46%     87.74% |          62      8.64%     96.38% |          26      3.62%    100.00% (Unspecified)
board.cache_hierarchy.ruby_system.L1Cache_Controller.I.Store::total          718                       (Unspecified)
board.cache_hierarchy.ruby_system.L1Cache_Controller.I.L1_Replacement |       23727      6.53%      6.53% |       22619      6.22%     12.75% |       22657      6.23%     18.98% |       22701      6.24%     25.22% |       22621      6.22%     31.44% |       22691      6.24%     37.68% |       22685      6.24%     43.92% |       22699      6.24%     50.16% |       22620      6.22%     56.38% |       22689      6.24%     62.62% |       22711      6.25%     68.87% |       22693      6.24%     75.11% |       22608      6.22%     81.33% |       22575      6.21%     87.53% |       22627      6.22%     93.76% |       22704      6.24%    100.00% (Unspecified)
board.cache_hierarchy.ruby_system.L1Cache_Controller.I.L1_Replacement::total       363627                       (Unspecified)
board.cache_hierarchy.ruby_system.L1Cache_Controller.S.Load |       18516      3.17%      3.17% |       48978      8.38%     11.55% |       46808      8.01%     19.56% |       46362      7.93%     27.49% |       41580      7.12%     34.61% |       45078      7.71%     42.32% |       44694      7.65%     49.97% |       39440      6.75%     56.72% |       42704      7.31%     64.03% |       36184      6.19%     70.22% |       31538      5.40%     75.62% |       31898      5.46%     81.08% |       28758      4.92%     86.00% |       27858      4.77%     90.77% |       23230      3.98%     94.74% |       30724      5.26%    100.00% (Unspecified)
board.cache_hierarchy.ruby_system.L1Cache_Controller.S.Load::total       584350                       (Unspecified)
board.cache_hierarchy.ruby_system.L1Cache_Controller.S.Ifetch |     9359117     68.08%     68.08% |      307622      2.24%     70.32% |      304347      2.21%     72.54% |      303676      2.21%     74.75% |      296545      2.16%     76.90% |      302209      2.20%     79.10% |      302005      2.20%     81.30% |      294519      2.14%     83.44% |      299772      2.18%     85.62% |      290395      2.11%     87.73% |      283833      2.06%     89.80% |      284732      2.07%     91.87% |      280409      2.04%     93.91% |      279523      2.03%     95.94% |      272979      1.99%     97.93% |      284585      2.07%    100.00% (Unspecified)
board.cache_hierarchy.ruby_system.L1Cache_Controller.S.Ifetch::total     13746268                       (Unspecified)
board.cache_hierarchy.ruby_system.L1Cache_Controller.S.Store |          15     31.91%     31.91% |           2      4.26%     36.17% |           2      4.26%     40.43% |           2      4.26%     44.68% |           2      4.26%     48.94% |           2      4.26%     53.19% |           2      4.26%     57.45% |           2      4.26%     61.70% |           2      4.26%     65.96% |           2      4.26%     70.21% |           2      4.26%     74.47% |           2      4.26%     78.72% |           2      4.26%     82.98% |           2      4.26%     87.23% |           3      6.38%     93.62% |           3      6.38%    100.00% (Unspecified)
board.cache_hierarchy.ruby_system.L1Cache_Controller.S.Store::total           47                       (Unspecified)
board.cache_hierarchy.ruby_system.L1Cache_Controller.S.Inv |        1658     16.78%     16.78% |         544      5.51%     22.29% |         546      5.53%     27.81% |         547      5.54%     33.35% |         550      5.57%     38.92% |         549      5.56%     44.47% |         548      5.55%     50.02% |         547      5.54%     55.56% |         548      5.55%     61.10% |         550      5.57%     66.67% |         549      5.56%     72.23% |         550      5.57%     77.79% |         550      5.57%     83.36% |         549      5.56%     88.92% |         548      5.55%     94.46% |         547      5.54%    100.00% (Unspecified)
board.cache_hierarchy.ruby_system.L1Cache_Controller.S.Inv::total         9880                       (Unspecified)
board.cache_hierarchy.ruby_system.L1Cache_Controller.S.L1_Replacement |        1599     99.63%     99.63% |           2      0.12%     99.75% |           1      0.06%     99.81% |           1      0.06%     99.88% |           0      0.00%     99.88% |           0      0.00%     99.88% |           0      0.00%     99.88% |           0      0.00%     99.88% |           0      0.00%     99.88% |           0      0.00%     99.88% |           0      0.00%     99.88% |           0      0.00%     99.88% |           0      0.00%     99.88% |           1      0.06%     99.94% |           1      0.06%    100.00% |           0      0.00%    100.00% (Unspecified)
board.cache_hierarchy.ruby_system.L1Cache_Controller.S.L1_Replacement::total         1605                       (Unspecified)
board.cache_hierarchy.ruby_system.L1Cache_Controller.E.Load |     9147890     67.36%     67.36% |      296202      2.18%     69.54% |      294969      2.17%     71.72% |      296161      2.18%     73.90% |      295102      2.17%     76.07% |      296069      2.18%     78.25% |      296153      2.18%     80.43% |      295389      2.18%     82.61% |      294873      2.17%     84.78% |      294881      2.17%     86.95% |      295754      2.18%     89.13% |      294710      2.17%     91.30% |      295272      2.17%     93.47% |      295138      2.17%     95.65% |      296142      2.18%     97.83% |      295238      2.17%    100.00% (Unspecified)
board.cache_hierarchy.ruby_system.L1Cache_Controller.E.Load::total     13579943                       (Unspecified)
board.cache_hierarchy.ruby_system.L1Cache_Controller.E.Store |         198     13.08%     13.08% |         134      8.85%     21.93% |          75      4.95%     26.88% |         126      8.32%     35.20% |          70      4.62%     39.83% |         118      7.79%     47.62% |         125      8.26%     55.88% |          80      5.28%     61.16% |          56      3.70%     64.86% |          69      4.56%     69.42% |          56      3.70%     73.12% |          64      4.23%     77.34% |          70      4.62%     81.97% |          73      4.82%     86.79% |         121      7.99%     94.78% |          79      5.22%    100.00% (Unspecified)
board.cache_hierarchy.ruby_system.L1Cache_Controller.E.Store::total         1514                       (Unspecified)
board.cache_hierarchy.ruby_system.L1Cache_Controller.E.Inv |       15385      6.29%      6.29% |       15425      6.31%     12.60% |       15339      6.27%     18.87% |       15453      6.32%     25.18% |       15225      6.22%     31.41% |       15467      6.32%     37.73% |       15479      6.33%     44.06% |       15298      6.25%     50.32% |       15267      6.24%     56.56% |       15282      6.25%     62.80% |       15223      6.22%     69.03% |       15218      6.22%     75.25% |       15076      6.16%     81.41% |       15059      6.16%     87.57% |       15159      6.20%     93.77% |       15246      6.23%    100.00% (Unspecified)
board.cache_hierarchy.ruby_system.L1Cache_Controller.E.Inv::total       244601                       (Unspecified)
board.cache_hierarchy.ruby_system.L1Cache_Controller.E.L1_Replacement |        1887     27.23%     27.23% |         377      5.44%     32.67% |         337      4.86%     37.54% |         296      4.27%     41.81% |         374      5.40%     47.21% |         306      4.42%     51.62% |         310      4.47%     56.10% |         299      4.32%     60.41% |         376      5.43%     65.84% |         309      4.46%     70.30% |         285      4.11%     74.41% |         304      4.39%     78.80% |         386      5.57%     84.37% |         421      6.08%     90.45% |         368      5.31%     95.76% |         294      4.24%    100.00% (Unspecified)
board.cache_hierarchy.ruby_system.L1Cache_Controller.E.L1_Replacement::total         6929                       (Unspecified)
board.cache_hierarchy.ruby_system.L1Cache_Controller.E.Fwd_GETX |           1    100.00%    100.00% |           0      0.00%    100.00% |           0      0.00%    100.00% |           0      0.00%    100.00% |           0      0.00%    100.00% |           0      0.00%    100.00% |           0      0.00%    100.00% |           0      0.00%    100.00% |           0      0.00%    100.00% |           0      0.00%    100.00% |           0      0.00%    100.00% |           0      0.00%    100.00% |           0      0.00%    100.00% |           0      0.00%    100.00% |           0      0.00%    100.00% |           0      0.00%    100.00% (Unspecified)
board.cache_hierarchy.ruby_system.L1Cache_Controller.E.Fwd_GETX::total            1                       (Unspecified)
board.cache_hierarchy.ruby_system.L1Cache_Controller.E.Fwd_GETS |           8     32.00%     32.00% |          13     52.00%     84.00% |           1      4.00%     88.00% |           1      4.00%     92.00% |           1      4.00%     96.00% |           1      4.00%    100.00% |           0      0.00%    100.00% |           0      0.00%    100.00% |           0      0.00%    100.00% |           0      0.00%    100.00% |           0      0.00%    100.00% |           0      0.00%    100.00% |           0      0.00%    100.00% |           0      0.00%    100.00% |           0      0.00%    100.00% |           0      0.00%    100.00% (Unspecified)
board.cache_hierarchy.ruby_system.L1Cache_Controller.E.Fwd_GETS::total           25                       (Unspecified)
board.cache_hierarchy.ruby_system.L1Cache_Controller.M.Load |     6453292     63.12%     63.12% |      250518      2.45%     65.57% |      251873      2.46%     68.04% |      250547      2.45%     70.49% |      251753      2.46%     72.95% |      250657      2.45%     75.40% |      250559      2.45%     77.85% |      251455      2.46%     80.31% |      252012      2.47%     82.78% |      251959      2.46%     85.24% |      251121      2.46%     87.70% |      252165      2.47%     90.16% |      251604      2.46%     92.63% |      251712      2.46%     95.09% |      250573      2.45%     97.54% |      251599      2.46%    100.00% (Unspecified)
board.cache_hierarchy.ruby_system.L1Cache_Controller.M.Load::total     10223399                       (Unspecified)
board.cache_hierarchy.ruby_system.L1Cache_Controller.M.Store |     8448859     76.61%     76.61% |      171877      1.56%     78.17% |      171954      1.56%     79.73% |      171874      1.56%     81.29% |      171950      1.56%     82.85% |      171879      1.56%     84.41% |      171871      1.56%     85.97% |      171952      1.56%     87.53% |      171976      1.56%     89.09% |      171945      1.56%     90.64% |      171964      1.56%     92.20% |      171967      1.56%     93.76% |      171961      1.56%     95.32% |      171950      1.56%     96.88% |      171867      1.56%     98.44% |      171941      1.56%    100.00% (Unspecified)
board.cache_hierarchy.ruby_system.L1Cache_Controller.M.Store::total     11027787                       (Unspecified)
board.cache_hierarchy.ruby_system.L1Cache_Controller.M.Inv |        8202      6.48%      6.48% |        8010      6.33%     12.81% |        7913      6.25%     19.06% |        8015      6.33%     25.39% |        7877      6.22%     31.61% |        7975      6.30%     37.91% |        8013      6.33%     44.24% |        7894      6.24%     50.48% |        7909      6.25%     56.72% |        7844      6.20%     62.92% |        7796      6.16%     69.08% |        7847      6.20%     75.28% |        7802      6.16%     81.44% |        7789      6.15%     87.59% |        7844      6.20%     93.79% |        7862      6.21%    100.00% (Unspecified)
board.cache_hierarchy.ruby_system.L1Cache_Controller.M.Inv::total       126592                       (Unspecified)
board.cache_hierarchy.ruby_system.L1Cache_Controller.M.L1_Replacement |      375833     99.99%     99.99% |           1      0.00%    100.00% |           1      0.00%    100.00% |           1      0.00%    100.00% |           1      0.00%    100.00% |           2      0.00%    100.00% |           1      0.00%    100.00% |           1      0.00%    100.00% |           0      0.00%    100.00% |           1      0.00%    100.00% |           0      0.00%    100.00% |           2      0.00%    100.00% |           2      0.00%    100.00% |           2      0.00%    100.00% |           4      0.00%    100.00% |           0      0.00%    100.00% (Unspecified)
board.cache_hierarchy.ruby_system.L1Cache_Controller.M.L1_Replacement::total       375852                       (Unspecified)
board.cache_hierarchy.ruby_system.L1Cache_Controller.M.Fwd_GETX |          63     48.46%     48.46% |           5      3.85%     52.31% |           5      3.85%     56.15% |           5      3.85%     60.00% |           5      3.85%     63.85% |           4      3.08%     66.92% |           5      3.85%     70.77% |           4      3.08%     73.85% |           5      3.85%     77.69% |           5      3.85%     81.54% |           5      3.85%     85.38% |           5      3.85%     89.23% |           5      3.85%     93.08% |           4      3.08%     96.15% |           4      3.08%     99.23% |           1      0.77%    100.00% (Unspecified)
board.cache_hierarchy.ruby_system.L1Cache_Controller.M.Fwd_GETX::total          130                       (Unspecified)
board.cache_hierarchy.ruby_system.L1Cache_Controller.M.Fwd_GETS |         154     98.09%     98.09% |           0      0.00%     98.09% |           0      0.00%     98.09% |           0      0.00%     98.09% |           0      0.00%     98.09% |           0      0.00%     98.09% |           0      0.00%     98.09% |           0      0.00%     98.09% |           0      0.00%     98.09% |           0      0.00%     98.09% |           0      0.00%     98.09% |           0      0.00%     98.09% |           0      0.00%     98.09% |           0      0.00%     98.09% |           2      1.27%     99.36% |           1      0.64%    100.00% (Unspecified)
board.cache_hierarchy.ruby_system.L1Cache_Controller.M.Fwd_GETS::total          157                       (Unspecified)
board.cache_hierarchy.ruby_system.L1Cache_Controller.IS.Data_Exclusive |       17628      6.90%      6.90% |       15958      6.25%     13.16% |       15807      6.19%     19.35% |       15938      6.24%     25.59% |       15803      6.19%     31.78% |       15930      6.24%     38.02% |       15935      6.24%     44.26% |       15816      6.20%     50.46% |       15776      6.18%     56.64% |       15804      6.19%     62.83% |       15776      6.18%     69.01% |       15785      6.18%     75.19% |       15789      6.18%     81.37% |       15807      6.19%     87.57% |       15932      6.24%     93.81% |       15814      6.19%    100.00% (Unspecified)
board.cache_hierarchy.ruby_system.L1Cache_Controller.IS.Data_Exclusive::total       255298                       (Unspecified)
board.cache_hierarchy.ruby_system.L1Cache_Controller.IS.DataS_fromL1 |           1      0.55%      0.55% |          22     12.09%     12.64% |          22     12.09%     24.73% |          11      6.04%     30.77% |          10      5.49%     36.26% |          10      5.49%     41.76% |          11      6.04%     47.80% |           9      4.95%     52.75% |          10      5.49%     58.24% |          10      5.49%     63.74% |          10      5.49%     69.23% |          11      6.04%     75.27% |          11      6.04%     81.32% |          11      6.04%     87.36% |          12      6.59%     93.96% |          11      6.04%    100.00% (Unspecified)
board.cache_hierarchy.ruby_system.L1Cache_Controller.IS.DataS_fromL1::total          182                       (Unspecified)
board.cache_hierarchy.ruby_system.L1Cache_Controller.IS.Data_all_Acks |        3574     29.73%     29.73% |         537      4.47%     34.20% |         551      4.58%     38.79% |         563      4.68%     43.47% |         567      4.72%     48.19% |         565      4.70%     52.89% |         564      4.69%     57.58% |         566      4.71%     62.29% |         565      4.70%     66.99% |         568      4.73%     71.71% |         567      4.72%     76.43% |         567      4.72%     81.15% |         567      4.72%     85.87% |         567      4.72%     90.58% |         568      4.73%     95.31% |         564      4.69%    100.00% (Unspecified)
board.cache_hierarchy.ruby_system.L1Cache_Controller.IS.Data_all_Acks::total        12020                       (Unspecified)
board.cache_hierarchy.ruby_system.L1Cache_Controller.IM.Data |           1    100.00%    100.00% |           0      0.00%    100.00% |           0      0.00%    100.00% |           0      0.00%    100.00% |           0      0.00%    100.00% |           0      0.00%    100.00% |           0      0.00%    100.00% |           0      0.00%    100.00% |           0      0.00%    100.00% |           0      0.00%    100.00% |           0      0.00%    100.00% |           0      0.00%    100.00% |           0      0.00%    100.00% |           0      0.00%    100.00% |           0      0.00%    100.00% |           0      0.00%    100.00% (Unspecified)
board.cache_hierarchy.ruby_system.L1Cache_Controller.IM.Data::total            1                       (Unspecified)
board.cache_hierarchy.ruby_system.L1Cache_Controller.IM.Data_all_Acks |      384123     76.47%     76.47% |        7889      1.57%     78.04% |        7869      1.57%     79.61% |        7897      1.57%     81.18% |        7874      1.57%     82.75% |        7905      1.57%     84.32% |        7897      1.57%     85.89% |        7865      1.57%     87.46% |        7875      1.57%     89.03% |        7876      1.57%     90.59% |        7875      1.57%     92.16% |        7868      1.57%     93.73% |        7861      1.56%     95.29% |        7872      1.57%     96.86% |        7902      1.57%     98.43% |        7866      1.57%    100.00% (Unspecified)
board.cache_hierarchy.ruby_system.L1Cache_Controller.IM.Data_all_Acks::total       502314                       (Unspecified)
board.cache_hierarchy.ruby_system.L1Cache_Controller.SM.Ack |          23     27.71%     27.71% |           2      2.41%     30.12% |           2      2.41%     32.53% |           2      2.41%     34.94% |           2      2.41%     37.35% |           2      2.41%     39.76% |           2      2.41%     42.17% |           2      2.41%     44.58% |           2      2.41%     46.99% |           2      2.41%     49.40% |           2      2.41%     51.81% |           2      2.41%     54.22% |           2      2.41%     56.63% |           2      2.41%     59.04% |          17     20.48%     79.52% |          17     20.48%    100.00% (Unspecified)
board.cache_hierarchy.ruby_system.L1Cache_Controller.SM.Ack::total           83                       (Unspecified)
board.cache_hierarchy.ruby_system.L1Cache_Controller.SM.Ack_all |          16     33.33%     33.33% |           2      4.17%     37.50% |           2      4.17%     41.67% |           2      4.17%     45.83% |           2      4.17%     50.00% |           2      4.17%     54.17% |           2      4.17%     58.33% |           2      4.17%     62.50% |           2      4.17%     66.67% |           2      4.17%     70.83% |           2      4.17%     75.00% |           2      4.17%     79.17% |           2      4.17%     83.33% |           2      4.17%     87.50% |           3      6.25%     93.75% |           3      6.25%    100.00% (Unspecified)
board.cache_hierarchy.ruby_system.L1Cache_Controller.SM.Ack_all::total           48                       (Unspecified)
board.cache_hierarchy.ruby_system.L1Cache_Controller.M_I.Inv |           0      0.00%      0.00% |           0      0.00%      0.00% |           0      0.00%      0.00% |           0      0.00%      0.00% |           0      0.00%      0.00% |           0      0.00%      0.00% |           0      0.00%      0.00% |           0      0.00%      0.00% |           0      0.00%      0.00% |           0      0.00%      0.00% |           0      0.00%      0.00% |           0      0.00%      0.00% |           0      0.00%      0.00% |           1    100.00%    100.00% |           0      0.00%    100.00% |           0      0.00%    100.00% (Unspecified)
board.cache_hierarchy.ruby_system.L1Cache_Controller.M_I.Inv::total            1                       (Unspecified)
board.cache_hierarchy.ruby_system.L1Cache_Controller.M_I.WB_Ack |      377720     98.68%     98.68% |         378      0.10%     98.78% |         338      0.09%     98.87% |         297      0.08%     98.94% |         375      0.10%     99.04% |         308      0.08%     99.12% |         311      0.08%     99.20% |         300      0.08%     99.28% |         376      0.10%     99.38% |         310      0.08%     99.46% |         285      0.07%     99.53% |         306      0.08%     99.61% |         388      0.10%     99.72% |         422      0.11%     99.83% |         372      0.10%     99.92% |         294      0.08%    100.00% (Unspecified)
board.cache_hierarchy.ruby_system.L1Cache_Controller.M_I.WB_Ack::total       382780                       (Unspecified)
board.cache_hierarchy.ruby_system.L1Cache_Controller.SINK_WB_ACK.WB_Ack |           0      0.00%      0.00% |           0      0.00%      0.00% |           0      0.00%      0.00% |           0      0.00%      0.00% |           0      0.00%      0.00% |           0      0.00%      0.00% |           0      0.00%      0.00% |           0      0.00%      0.00% |           0      0.00%      0.00% |           0      0.00%      0.00% |           0      0.00%      0.00% |           0      0.00%      0.00% |           0      0.00%      0.00% |           1    100.00%    100.00% |           0      0.00%    100.00% |           0      0.00%    100.00% (Unspecified)
board.cache_hierarchy.ruby_system.L1Cache_Controller.SINK_WB_ACK.WB_Ack::total            1                       (Unspecified)
board.cache_hierarchy.ruby_system.L2Cache_Controller.L1_GET_INSTR        12335      0.00%      0.00% (Unspecified)
board.cache_hierarchy.ruby_system.L2Cache_Controller.L1_GETS       256879      0.00%      0.00% (Unspecified)
board.cache_hierarchy.ruby_system.L2Cache_Controller.L1_GETX       502652      0.00%      0.00% (Unspecified)
board.cache_hierarchy.ruby_system.L2Cache_Controller.L1_UPGRADE           47      0.00%      0.00% (Unspecified)
board.cache_hierarchy.ruby_system.L2Cache_Controller.L1_PUTX       382780      0.00%      0.00% (Unspecified)
board.cache_hierarchy.ruby_system.L2Cache_Controller.L1_PUTX_old            2      0.00%      0.00% (Unspecified)
board.cache_hierarchy.ruby_system.L2Cache_Controller.L2_Replacement       375920      0.00%      0.00% (Unspecified)
board.cache_hierarchy.ruby_system.L2Cache_Controller.L2_Replacement_clean       380551      0.00%      0.00% (Unspecified)
board.cache_hierarchy.ruby_system.L2Cache_Controller.Mem_Data       760566      0.00%      0.00% (Unspecified)
board.cache_hierarchy.ruby_system.L2Cache_Controller.Mem_Ack       756471      0.00%      0.00% (Unspecified)
board.cache_hierarchy.ruby_system.L2Cache_Controller.WB_Data       126749      0.00%      0.00% (Unspecified)
board.cache_hierarchy.ruby_system.L2Cache_Controller.WB_Data_clean           26      0.00%      0.00% (Unspecified)
board.cache_hierarchy.ruby_system.L2Cache_Controller.Ack         8032      0.00%      0.00% (Unspecified)
board.cache_hierarchy.ruby_system.L2Cache_Controller.Ack_all       247608      0.00%      0.00% (Unspecified)
board.cache_hierarchy.ruby_system.L2Cache_Controller.Unblock          182      0.00%      0.00% (Unspecified)
board.cache_hierarchy.ruby_system.L2Cache_Controller.Exclusive_Unblock       757660      0.00%      0.00% (Unspecified)
board.cache_hierarchy.ruby_system.L2Cache_Controller.NP.L1_GET_INSTR         3496      0.00%      0.00% (Unspecified)
board.cache_hierarchy.ruby_system.L2Cache_Controller.NP.L1_GETS       254933      0.00%      0.00% (Unspecified)
board.cache_hierarchy.ruby_system.L2Cache_Controller.NP.L1_GETX       502137      0.00%      0.00% (Unspecified)
board.cache_hierarchy.ruby_system.L2Cache_Controller.NP.L1_PUTX_old            1      0.00%      0.00% (Unspecified)
board.cache_hierarchy.ruby_system.L2Cache_Controller.SS.L1_GET_INSTR         3792      0.00%      0.00% (Unspecified)
board.cache_hierarchy.ruby_system.L2Cache_Controller.SS.L1_GETS          366      0.00%      0.00% (Unspecified)
board.cache_hierarchy.ruby_system.L2Cache_Controller.SS.L1_GETX            2      0.00%      0.00% (Unspecified)
board.cache_hierarchy.ruby_system.L2Cache_Controller.SS.L1_UPGRADE           47      0.00%      0.00% (Unspecified)
board.cache_hierarchy.ruby_system.L2Cache_Controller.SS.L2_Replacement          110      0.00%      0.00% (Unspecified)
board.cache_hierarchy.ruby_system.L2Cache_Controller.SS.L2_Replacement_clean         2897      0.00%      0.00% (Unspecified)
board.cache_hierarchy.ruby_system.L2Cache_Controller.M.L1_GET_INSTR            1      0.00%      0.00% (Unspecified)
board.cache_hierarchy.ruby_system.L2Cache_Controller.M.L1_GETS          370      0.00%      0.00% (Unspecified)
board.cache_hierarchy.ruby_system.L2Cache_Controller.M.L1_GETX           45      0.00%      0.00% (Unspecified)
board.cache_hierarchy.ruby_system.L2Cache_Controller.M.L2_Replacement       375769      0.00%      0.00% (Unspecified)
board.cache_hierarchy.ruby_system.L2Cache_Controller.M.L2_Replacement_clean         6501      0.00%      0.00% (Unspecified)
board.cache_hierarchy.ruby_system.L2Cache_Controller.MT.L1_GETS          182      0.00%      0.00% (Unspecified)
board.cache_hierarchy.ruby_system.L2Cache_Controller.MT.L1_GETX          131      0.00%      0.00% (Unspecified)
board.cache_hierarchy.ruby_system.L2Cache_Controller.MT.L1_PUTX       382780      0.00%      0.00% (Unspecified)
board.cache_hierarchy.ruby_system.L2Cache_Controller.MT.L2_Replacement           41      0.00%      0.00% (Unspecified)
board.cache_hierarchy.ruby_system.L2Cache_Controller.MT.L2_Replacement_clean       371153      0.00%      0.00% (Unspecified)
board.cache_hierarchy.ruby_system.L2Cache_Controller.M_I.L1_GET_INSTR          731      0.00%      0.00% (Unspecified)
board.cache_hierarchy.ruby_system.L2Cache_Controller.M_I.L1_GETS          884      0.00%      0.00% (Unspecified)
board.cache_hierarchy.ruby_system.L2Cache_Controller.M_I.L1_GETX          225      0.00%      0.00% (Unspecified)
board.cache_hierarchy.ruby_system.L2Cache_Controller.M_I.Mem_Ack       756471      0.00%      0.00% (Unspecified)
board.cache_hierarchy.ruby_system.L2Cache_Controller.MT_I.WB_Data           40      0.00%      0.00% (Unspecified)
board.cache_hierarchy.ruby_system.L2Cache_Controller.MT_I.Ack_all            1      0.00%      0.00% (Unspecified)
board.cache_hierarchy.ruby_system.L2Cache_Controller.MCT_I.L1_GETS            1      0.00%      0.00% (Unspecified)
board.cache_hierarchy.ruby_system.L2Cache_Controller.MCT_I.L1_PUTX_old            1      0.00%      0.00% (Unspecified)
board.cache_hierarchy.ruby_system.L2Cache_Controller.MCT_I.WB_Data       126552      0.00%      0.00% (Unspecified)
board.cache_hierarchy.ruby_system.L2Cache_Controller.MCT_I.WB_Data_clean            1      0.00%      0.00% (Unspecified)
board.cache_hierarchy.ruby_system.L2Cache_Controller.MCT_I.Ack_all       244600      0.00%      0.00% (Unspecified)
board.cache_hierarchy.ruby_system.L2Cache_Controller.I_I.L1_GET_INSTR           14      0.00%      0.00% (Unspecified)
board.cache_hierarchy.ruby_system.L2Cache_Controller.I_I.Ack         7840      0.00%      0.00% (Unspecified)
board.cache_hierarchy.ruby_system.L2Cache_Controller.I_I.Ack_all         2897      0.00%      0.00% (Unspecified)
board.cache_hierarchy.ruby_system.L2Cache_Controller.S_I.Ack          192      0.00%      0.00% (Unspecified)
board.cache_hierarchy.ruby_system.L2Cache_Controller.S_I.Ack_all          110      0.00%      0.00% (Unspecified)
board.cache_hierarchy.ruby_system.L2Cache_Controller.ISS.L1_GETS            5      0.00%      0.00% (Unspecified)
board.cache_hierarchy.ruby_system.L2Cache_Controller.ISS.Mem_Data       254928      0.00%      0.00% (Unspecified)
board.cache_hierarchy.ruby_system.L2Cache_Controller.IS.L1_GET_INSTR         4301      0.00%      0.00% (Unspecified)
board.cache_hierarchy.ruby_system.L2Cache_Controller.IS.L1_GETS           54      0.00%      0.00% (Unspecified)
board.cache_hierarchy.ruby_system.L2Cache_Controller.IS.Mem_Data         3501      0.00%      0.00% (Unspecified)
board.cache_hierarchy.ruby_system.L2Cache_Controller.IM.L1_GETX           14      0.00%      0.00% (Unspecified)
board.cache_hierarchy.ruby_system.L2Cache_Controller.IM.Mem_Data       502137      0.00%      0.00% (Unspecified)
board.cache_hierarchy.ruby_system.L2Cache_Controller.SS_MB.L1_GETS           28      0.00%      0.00% (Unspecified)
board.cache_hierarchy.ruby_system.L2Cache_Controller.SS_MB.Exclusive_Unblock           49      0.00%      0.00% (Unspecified)
board.cache_hierarchy.ruby_system.L2Cache_Controller.MT_MB.L1_GETS            2      0.00%      0.00% (Unspecified)
board.cache_hierarchy.ruby_system.L2Cache_Controller.MT_MB.L1_GETX           98      0.00%      0.00% (Unspecified)
board.cache_hierarchy.ruby_system.L2Cache_Controller.MT_MB.Exclusive_Unblock       757611      0.00%      0.00% (Unspecified)
board.cache_hierarchy.ruby_system.L2Cache_Controller.MT_IIB.L1_GETS           54      0.00%      0.00% (Unspecified)
board.cache_hierarchy.ruby_system.L2Cache_Controller.MT_IIB.WB_Data          157      0.00%      0.00% (Unspecified)
board.cache_hierarchy.ruby_system.L2Cache_Controller.MT_IIB.WB_Data_clean           24      0.00%      0.00% (Unspecified)
board.cache_hierarchy.ruby_system.L2Cache_Controller.MT_IIB.Unblock            1      0.00%      0.00% (Unspecified)
board.cache_hierarchy.ruby_system.L2Cache_Controller.MT_IB.WB_Data_clean            1      0.00%      0.00% (Unspecified)
board.cache_hierarchy.ruby_system.L2Cache_Controller.MT_SB.Unblock          181      0.00%      0.00% (Unspecified)
board.cache_hierarchy.ruby_system.RequestType.LD.latency_hist_seqr::bucket_size          256                       (Unspecified)
board.cache_hierarchy.ruby_system.RequestType.LD.latency_hist_seqr::max_bucket         2559                       (Unspecified)
board.cache_hierarchy.ruby_system.RequestType.LD.latency_hist_seqr::samples     24643602                       (Unspecified)
board.cache_hierarchy.ruby_system.RequestType.LD.latency_hist_seqr::mean     4.795733                       (Unspecified)
board.cache_hierarchy.ruby_system.RequestType.LD.latency_hist_seqr::gmean     1.062425                       (Unspecified)
board.cache_hierarchy.ruby_system.RequestType.LD.latency_hist_seqr::stdev    40.533032                       (Unspecified)
board.cache_hierarchy.ruby_system.RequestType.LD.latency_hist_seqr |    24425067     99.11%     99.11% |      188136      0.76%     99.88% |       24525      0.10%     99.98% |        1597      0.01%     99.98% |        3019      0.01%     99.99% |        1195      0.00%    100.00% |          61      0.00%    100.00% |           2      0.00%    100.00% |           0      0.00%    100.00% |           0      0.00%    100.00% (Unspecified)
board.cache_hierarchy.ruby_system.RequestType.LD.latency_hist_seqr::total     24643602                       (Unspecified)
board.cache_hierarchy.ruby_system.RequestType.LD.hit_latency_hist_seqr::bucket_size            1                       (Unspecified)
board.cache_hierarchy.ruby_system.RequestType.LD.hit_latency_hist_seqr::max_bucket            9                       (Unspecified)
board.cache_hierarchy.ruby_system.RequestType.LD.hit_latency_hist_seqr::samples     24387692                       (Unspecified)
board.cache_hierarchy.ruby_system.RequestType.LD.hit_latency_hist_seqr::mean            1                       (Unspecified)
board.cache_hierarchy.ruby_system.RequestType.LD.hit_latency_hist_seqr::gmean            1                       (Unspecified)
board.cache_hierarchy.ruby_system.RequestType.LD.hit_latency_hist_seqr |           0      0.00%      0.00% |    24387692    100.00%    100.00% |           0      0.00%    100.00% |           0      0.00%    100.00% |           0      0.00%    100.00% |           0      0.00%    100.00% |           0      0.00%    100.00% |           0      0.00%    100.00% |           0      0.00%    100.00% |           0      0.00%    100.00% (Unspecified)
board.cache_hierarchy.ruby_system.RequestType.LD.hit_latency_hist_seqr::total     24387692                       (Unspecified)
board.cache_hierarchy.ruby_system.RequestType.LD.miss_latency_hist_seqr::bucket_size          256                       (Unspecified)
board.cache_hierarchy.ruby_system.RequestType.LD.miss_latency_hist_seqr::max_bucket         2559                       (Unspecified)
board.cache_hierarchy.ruby_system.RequestType.LD.miss_latency_hist_seqr::samples       255910                       (Unspecified)
board.cache_hierarchy.ruby_system.RequestType.LD.miss_latency_hist_seqr::mean   366.521187                       (Unspecified)
board.cache_hierarchy.ruby_system.RequestType.LD.miss_latency_hist_seqr::gmean   340.775072                       (Unspecified)
board.cache_hierarchy.ruby_system.RequestType.LD.miss_latency_hist_seqr::stdev   161.220989                       (Unspecified)
board.cache_hierarchy.ruby_system.RequestType.LD.miss_latency_hist_seqr |       37375     14.60%     14.60% |      188136     73.52%     88.12% |       24525      9.58%     97.70% |        1597      0.62%     98.33% |        3019      1.18%     99.51% |        1195      0.47%     99.98% |          61      0.02%    100.00% |           2      0.00%    100.00% |           0      0.00%    100.00% |           0      0.00%    100.00% (Unspecified)
board.cache_hierarchy.ruby_system.RequestType.LD.miss_latency_hist_seqr::total       255910                       (Unspecified)
board.cache_hierarchy.ruby_system.RequestType.ST.latency_hist_seqr::bucket_size          256                       (Unspecified)
board.cache_hierarchy.ruby_system.RequestType.ST.latency_hist_seqr::max_bucket         2559                       (Unspecified)
board.cache_hierarchy.ruby_system.RequestType.ST.latency_hist_seqr::samples      7528735                       (Unspecified)
board.cache_hierarchy.ruby_system.RequestType.ST.latency_hist_seqr::mean    16.457006                       (Unspecified)
board.cache_hierarchy.ruby_system.RequestType.ST.latency_hist_seqr::gmean     1.425694                       (Unspecified)
board.cache_hierarchy.ruby_system.RequestType.ST.latency_hist_seqr::stdev    69.778015                       (Unspecified)
board.cache_hierarchy.ruby_system.RequestType.ST.latency_hist_seqr |     7397948     98.26%     98.26% |       91884      1.22%     99.48% |       32158      0.43%     99.91% |        4891      0.06%     99.98% |        1339      0.02%     99.99% |         459      0.01%    100.00% |          55      0.00%    100.00% |           1      0.00%    100.00% |           0      0.00%    100.00% |           0      0.00%    100.00% (Unspecified)
board.cache_hierarchy.ruby_system.RequestType.ST.latency_hist_seqr::total      7528735                       (Unspecified)
board.cache_hierarchy.ruby_system.RequestType.ST.hit_latency_hist_seqr::bucket_size            1                       (Unspecified)
board.cache_hierarchy.ruby_system.RequestType.ST.hit_latency_hist_seqr::max_bucket            9                       (Unspecified)
board.cache_hierarchy.ruby_system.RequestType.ST.hit_latency_hist_seqr::samples      7027351                       (Unspecified)
board.cache_hierarchy.ruby_system.RequestType.ST.hit_latency_hist_seqr::mean     1.000005                       (Unspecified)
board.cache_hierarchy.ruby_system.RequestType.ST.hit_latency_hist_seqr::gmean     1.000004                       (Unspecified)
board.cache_hierarchy.ruby_system.RequestType.ST.hit_latency_hist_seqr::stdev     0.002295                       (Unspecified)
board.cache_hierarchy.ruby_system.RequestType.ST.hit_latency_hist_seqr |           0      0.00%      0.00% |     7027314    100.00%    100.00% |          37      0.00%    100.00% |           0      0.00%    100.00% |           0      0.00%    100.00% |           0      0.00%    100.00% |           0      0.00%    100.00% |           0      0.00%    100.00% |           0      0.00%    100.00% |           0      0.00%    100.00% (Unspecified)
board.cache_hierarchy.ruby_system.RequestType.ST.hit_latency_hist_seqr::total      7027351                       (Unspecified)
board.cache_hierarchy.ruby_system.RequestType.ST.miss_latency_hist_seqr::bucket_size          256                       (Unspecified)
board.cache_hierarchy.ruby_system.RequestType.ST.miss_latency_hist_seqr::max_bucket         2559                       (Unspecified)
board.cache_hierarchy.ruby_system.RequestType.ST.miss_latency_hist_seqr::samples       501384                       (Unspecified)
board.cache_hierarchy.ruby_system.RequestType.ST.miss_latency_hist_seqr::mean   233.100873                       (Unspecified)
board.cache_hierarchy.ruby_system.RequestType.ST.miss_latency_hist_seqr::gmean   205.504102                       (Unspecified)
board.cache_hierarchy.ruby_system.RequestType.ST.miss_latency_hist_seqr::stdev   151.092098                       (Unspecified)
board.cache_hierarchy.ruby_system.RequestType.ST.miss_latency_hist_seqr |      370597     73.91%     73.91% |       91884     18.33%     92.24% |       32158      6.41%     98.65% |        4891      0.98%     99.63% |        1339      0.27%     99.90% |         459      0.09%     99.99% |          55      0.01%    100.00% |           1      0.00%    100.00% |           0      0.00%    100.00% |           0      0.00%    100.00% (Unspecified)
board.cache_hierarchy.ruby_system.RequestType.ST.miss_latency_hist_seqr::total       501384                       (Unspecified)
board.cache_hierarchy.ruby_system.RequestType.IFETCH.latency_hist_seqr::bucket_size          256                       (Unspecified)
board.cache_hierarchy.ruby_system.RequestType.IFETCH.latency_hist_seqr::max_bucket         2559                       (Unspecified)
board.cache_hierarchy.ruby_system.RequestType.IFETCH.latency_hist_seqr::samples     13757858                       (Unspecified)
board.cache_hierarchy.ruby_system.RequestType.IFETCH.latency_hist_seqr::mean     1.134256                       (Unspecified)
board.cache_hierarchy.ruby_system.RequestType.IFETCH.latency_hist_seqr::gmean     1.003780                       (Unspecified)
board.cache_hierarchy.ruby_system.RequestType.IFETCH.latency_hist_seqr::stdev     6.662270                       (Unspecified)
board.cache_hierarchy.ruby_system.RequestType.IFETCH.latency_hist_seqr |    13755617     99.98%     99.98% |        1868      0.01%    100.00% |         274      0.00%    100.00% |          39      0.00%    100.00% |          31      0.00%    100.00% |          28      0.00%    100.00% |           1      0.00%    100.00% |           0      0.00%    100.00% |           0      0.00%    100.00% |           0      0.00%    100.00% (Unspecified)
board.cache_hierarchy.ruby_system.RequestType.IFETCH.latency_hist_seqr::total     13757858                       (Unspecified)
board.cache_hierarchy.ruby_system.RequestType.IFETCH.hit_latency_hist_seqr::bucket_size            1                       (Unspecified)
board.cache_hierarchy.ruby_system.RequestType.IFETCH.hit_latency_hist_seqr::max_bucket            9                       (Unspecified)
board.cache_hierarchy.ruby_system.RequestType.IFETCH.hit_latency_hist_seqr::samples     13746268                       (Unspecified)
board.cache_hierarchy.ruby_system.RequestType.IFETCH.hit_latency_hist_seqr::mean            1                       (Unspecified)
board.cache_hierarchy.ruby_system.RequestType.IFETCH.hit_latency_hist_seqr::gmean            1                       (Unspecified)
board.cache_hierarchy.ruby_system.RequestType.IFETCH.hit_latency_hist_seqr |           0      0.00%      0.00% |    13746268    100.00%    100.00% |           0      0.00%    100.00% |           0      0.00%    100.00% |           0      0.00%    100.00% |           0      0.00%    100.00% |           0      0.00%    100.00% |           0      0.00%    100.00% |           0      0.00%    100.00% |           0      0.00%    100.00% (Unspecified)
board.cache_hierarchy.ruby_system.RequestType.IFETCH.hit_latency_hist_seqr::total     13746268                       (Unspecified)
board.cache_hierarchy.ruby_system.RequestType.IFETCH.miss_latency_hist_seqr::bucket_size          256                       (Unspecified)
board.cache_hierarchy.ruby_system.RequestType.IFETCH.miss_latency_hist_seqr::max_bucket         2559                       (Unspecified)
board.cache_hierarchy.ruby_system.RequestType.IFETCH.miss_latency_hist_seqr::samples        11590                       (Unspecified)
board.cache_hierarchy.ruby_system.RequestType.IFETCH.miss_latency_hist_seqr::mean   160.368421                       (Unspecified)
board.cache_hierarchy.ruby_system.RequestType.IFETCH.miss_latency_hist_seqr::gmean    88.073053                       (Unspecified)
board.cache_hierarchy.ruby_system.RequestType.IFETCH.miss_latency_hist_seqr::stdev   165.267887                       (Unspecified)
board.cache_hierarchy.ruby_system.RequestType.IFETCH.miss_latency_hist_seqr |        9349     80.66%     80.66% |        1868     16.12%     96.78% |         274      2.36%     99.15% |          39      0.34%     99.48% |          31      0.27%     99.75% |          28      0.24%     99.99% |           1      0.01%    100.00% |           0      0.00%    100.00% |           0      0.00%    100.00% |           0      0.00%    100.00% (Unspecified)
board.cache_hierarchy.ruby_system.RequestType.IFETCH.miss_latency_hist_seqr::total        11590                       (Unspecified)
board.cache_hierarchy.ruby_system.RequestType.RMW_Read.latency_hist_seqr::bucket_size          128                       (Unspecified)
board.cache_hierarchy.ruby_system.RequestType.RMW_Read.latency_hist_seqr::max_bucket         1279                       (Unspecified)
board.cache_hierarchy.ruby_system.RequestType.RMW_Read.latency_hist_seqr::samples      4002270                       (Unspecified)
board.cache_hierarchy.ruby_system.RequestType.RMW_Read.latency_hist_seqr::mean     1.023470                       (Unspecified)
board.cache_hierarchy.ruby_system.RequestType.RMW_Read.latency_hist_seqr::gmean     1.001030                       (Unspecified)
board.cache_hierarchy.ruby_system.RequestType.RMW_Read.latency_hist_seqr::stdev     1.896458                       (Unspecified)
board.cache_hierarchy.ruby_system.RequestType.RMW_Read.latency_hist_seqr |     4002017     99.99%     99.99% |         243      0.01%    100.00% |           2      0.00%    100.00% |           4      0.00%    100.00% |           0      0.00%    100.00% |           1      0.00%    100.00% |           1      0.00%    100.00% |           2      0.00%    100.00% |           0      0.00%    100.00% |           0      0.00%    100.00% (Unspecified)
board.cache_hierarchy.ruby_system.RequestType.RMW_Read.latency_hist_seqr::total      4002270                       (Unspecified)
board.cache_hierarchy.ruby_system.RequestType.RMW_Read.hit_latency_hist_seqr::bucket_size            1                       (Unspecified)
board.cache_hierarchy.ruby_system.RequestType.RMW_Read.hit_latency_hist_seqr::max_bucket            9                       (Unspecified)
board.cache_hierarchy.ruby_system.RequestType.RMW_Read.hit_latency_hist_seqr::samples      4001361                       (Unspecified)
board.cache_hierarchy.ruby_system.RequestType.RMW_Read.hit_latency_hist_seqr::mean            1                       (Unspecified)
board.cache_hierarchy.ruby_system.RequestType.RMW_Read.hit_latency_hist_seqr::gmean            1                       (Unspecified)
board.cache_hierarchy.ruby_system.RequestType.RMW_Read.hit_latency_hist_seqr |           0      0.00%      0.00% |     4001361    100.00%    100.00% |           0      0.00%    100.00% |           0      0.00%    100.00% |           0      0.00%    100.00% |           0      0.00%    100.00% |           0      0.00%    100.00% |           0      0.00%    100.00% |           0      0.00%    100.00% |           0      0.00%    100.00% (Unspecified)
board.cache_hierarchy.ruby_system.RequestType.RMW_Read.hit_latency_hist_seqr::total      4001361                       (Unspecified)
board.cache_hierarchy.ruby_system.RequestType.RMW_Read.miss_latency_hist_seqr::bucket_size          128                       (Unspecified)
board.cache_hierarchy.ruby_system.RequestType.RMW_Read.miss_latency_hist_seqr::max_bucket         1279                       (Unspecified)
board.cache_hierarchy.ruby_system.RequestType.RMW_Read.miss_latency_hist_seqr::samples          909                       (Unspecified)
board.cache_hierarchy.ruby_system.RequestType.RMW_Read.miss_latency_hist_seqr::mean   104.337734                       (Unspecified)
board.cache_hierarchy.ruby_system.RequestType.RMW_Read.miss_latency_hist_seqr::gmean    92.998833                       (Unspecified)
board.cache_hierarchy.ruby_system.RequestType.RMW_Read.miss_latency_hist_seqr::stdev    71.866581                       (Unspecified)
board.cache_hierarchy.ruby_system.RequestType.RMW_Read.miss_latency_hist_seqr |         656     72.17%     72.17% |         243     26.73%     98.90% |           2      0.22%     99.12% |           4      0.44%     99.56% |           0      0.00%     99.56% |           1      0.11%     99.67% |           1      0.11%     99.78% |           2      0.22%    100.00% |           0      0.00%    100.00% |           0      0.00%    100.00% (Unspecified)
board.cache_hierarchy.ruby_system.RequestType.RMW_Read.miss_latency_hist_seqr::total          909                       (Unspecified)
board.cache_hierarchy.ruby_system.RequestType.Locked_RMW_Read.latency_hist_seqr::bucket_size          128                       (Unspecified)
board.cache_hierarchy.ruby_system.RequestType.Locked_RMW_Read.latency_hist_seqr::max_bucket         1279                       (Unspecified)
board.cache_hierarchy.ruby_system.RequestType.Locked_RMW_Read.latency_hist_seqr::samples          329                       (Unspecified)
board.cache_hierarchy.ruby_system.RequestType.Locked_RMW_Read.latency_hist_seqr::mean    31.209726                       (Unspecified)
board.cache_hierarchy.ruby_system.RequestType.Locked_RMW_Read.latency_hist_seqr::gmean     2.345689                       (Unspecified)
board.cache_hierarchy.ruby_system.RequestType.Locked_RMW_Read.latency_hist_seqr::stdev   107.863997                       (Unspecified)
board.cache_hierarchy.ruby_system.RequestType.Locked_RMW_Read.latency_hist_seqr |         307     93.31%     93.31% |           4      1.22%     94.53% |           6      1.82%     96.35% |           7      2.13%     98.48% |           4      1.22%     99.70% |           0      0.00%     99.70% |           1      0.30%    100.00% |           0      0.00%    100.00% |           0      0.00%    100.00% |           0      0.00%    100.00% (Unspecified)
board.cache_hierarchy.ruby_system.RequestType.Locked_RMW_Read.latency_hist_seqr::total          329                       (Unspecified)
board.cache_hierarchy.ruby_system.RequestType.Locked_RMW_Read.hit_latency_hist_seqr::bucket_size            1                       (Unspecified)
board.cache_hierarchy.ruby_system.RequestType.Locked_RMW_Read.hit_latency_hist_seqr::max_bucket            9                       (Unspecified)
board.cache_hierarchy.ruby_system.RequestType.Locked_RMW_Read.hit_latency_hist_seqr::samples          260                       (Unspecified)
board.cache_hierarchy.ruby_system.RequestType.Locked_RMW_Read.hit_latency_hist_seqr::mean            1                       (Unspecified)
board.cache_hierarchy.ruby_system.RequestType.Locked_RMW_Read.hit_latency_hist_seqr::gmean            1                       (Unspecified)
board.cache_hierarchy.ruby_system.RequestType.Locked_RMW_Read.hit_latency_hist_seqr |           0      0.00%      0.00% |         260    100.00%    100.00% |           0      0.00%    100.00% |           0      0.00%    100.00% |           0      0.00%    100.00% |           0      0.00%    100.00% |           0      0.00%    100.00% |           0      0.00%    100.00% |           0      0.00%    100.00% |           0      0.00%    100.00% (Unspecified)
board.cache_hierarchy.ruby_system.RequestType.Locked_RMW_Read.hit_latency_hist_seqr::total          260                       (Unspecified)
board.cache_hierarchy.ruby_system.RequestType.Locked_RMW_Read.miss_latency_hist_seqr::bucket_size          128                       (Unspecified)
board.cache_hierarchy.ruby_system.RequestType.Locked_RMW_Read.miss_latency_hist_seqr::max_bucket         1279                       (Unspecified)
board.cache_hierarchy.ruby_system.RequestType.Locked_RMW_Read.miss_latency_hist_seqr::samples           69                       (Unspecified)
board.cache_hierarchy.ruby_system.RequestType.Locked_RMW_Read.miss_latency_hist_seqr::mean   145.043478                       (Unspecified)
board.cache_hierarchy.ruby_system.RequestType.Locked_RMW_Read.miss_latency_hist_seqr::gmean    58.276314                       (Unspecified)
board.cache_hierarchy.ruby_system.RequestType.Locked_RMW_Read.miss_latency_hist_seqr::stdev   198.700516                       (Unspecified)
board.cache_hierarchy.ruby_system.RequestType.Locked_RMW_Read.miss_latency_hist_seqr |          47     68.12%     68.12% |           4      5.80%     73.91% |           6      8.70%     82.61% |           7     10.14%     92.75% |           4      5.80%     98.55% |           0      0.00%     98.55% |           1      1.45%    100.00% |           0      0.00%    100.00% |           0      0.00%    100.00% |           0      0.00%    100.00% (Unspecified)
board.cache_hierarchy.ruby_system.RequestType.Locked_RMW_Read.miss_latency_hist_seqr::total           69                       (Unspecified)
board.cache_hierarchy.ruby_system.RequestType.Locked_RMW_Write.latency_hist_seqr::bucket_size            1                       (Unspecified)
board.cache_hierarchy.ruby_system.RequestType.Locked_RMW_Write.latency_hist_seqr::max_bucket            9                       (Unspecified)
board.cache_hierarchy.ruby_system.RequestType.Locked_RMW_Write.latency_hist_seqr::samples          329                       (Unspecified)
board.cache_hierarchy.ruby_system.RequestType.Locked_RMW_Write.latency_hist_seqr::mean            1                       (Unspecified)
board.cache_hierarchy.ruby_system.RequestType.Locked_RMW_Write.latency_hist_seqr::gmean            1                       (Unspecified)
board.cache_hierarchy.ruby_system.RequestType.Locked_RMW_Write.latency_hist_seqr |           0      0.00%      0.00% |         329    100.00%    100.00% |           0      0.00%    100.00% |           0      0.00%    100.00% |           0      0.00%    100.00% |           0      0.00%    100.00% |           0      0.00%    100.00% |           0      0.00%    100.00% |           0      0.00%    100.00% |           0      0.00%    100.00% (Unspecified)
[...]
board.processor.cores9.core.commitStats0.committedInstType::FloatMultAcc            0      0.00%     52.93% # Class of committed instruction. (Count)
board.processor.cores9.core.commitStats0.committedInstType::FloatDiv            0      0.00%     52.93% # Class of committed instruction. (Count)
board.processor.cores9.core.commitStats0.committedInstType::FloatMisc            0      0.00%     52.93% # Class of committed instruction. (Count)
board.processor.cores9.core.commitStats0.committedInstType::FloatSqrt            0      0.00%     52.93% # Class of committed instruction. (Count)
board.processor.cores9.core.commitStats0.committedInstType::SimdAdd            0      0.00%     52.93% # Class of committed instruction. (Count)
board.processor.cores9.core.commitStats0.committedInstType::SimdAddAcc            0      0.00%     52.93% # Class of committed instruction. (Count)
board.processor.cores9.core.commitStats0.committedInstType::SimdAlu           16      0.00%     52.93% # Class of committed instruction. (Count)
board.processor.cores9.core.commitStats0.committedInstType::SimdCmp            0      0.00%     52.93% # Class of committed instruction. (Count)
board.processor.cores9.core.commitStats0.committedInstType::SimdCvt           20      0.00%     52.93% # Class of committed instruction. (Count)
board.processor.cores9.core.commitStats0.committedInstType::SimdMisc           25      0.00%     52.93% # Class of committed instruction. (Count)
board.processor.cores9.core.commitStats0.committedInstType::SimdMult            0      0.00%     52.93% # Class of committed instruction. (Count)
board.processor.cores9.core.commitStats0.committedInstType::SimdMultAcc            0      0.00%     52.93% # Class of committed instruction. (Count)
board.processor.cores9.core.commitStats0.committedInstType::SimdMatMultAcc            0      0.00%     52.93% # Class of committed instruction. (Count)
board.processor.cores9.core.commitStats0.committedInstType::SimdShift            0      0.00%     52.93% # Class of committed instruction. (Count)
board.processor.cores9.core.commitStats0.committedInstType::SimdShiftAcc            0      0.00%     52.93% # Class of committed instruction. (Count)
board.processor.cores9.core.commitStats0.committedInstType::SimdDiv            0      0.00%     52.93% # Class of committed instruction. (Count)
board.processor.cores9.core.commitStats0.committedInstType::SimdSqrt            0      0.00%     52.93% # Class of committed instruction. (Count)
board.processor.cores9.core.commitStats0.committedInstType::SimdFloatAdd        62500      3.08%     56.01% # Class of committed instruction. (Count)
board.processor.cores9.core.commitStats0.committedInstType::SimdFloatAlu            0      0.00%     56.01% # Class of committed instruction. (Count)
board.processor.cores9.core.commitStats0.committedInstType::SimdFloatCmp            0      0.00%     56.01% # Class of committed instruction. (Count)
board.processor.cores9.core.commitStats0.committedInstType::SimdFloatCvt            0      0.00%     56.01% # Class of committed instruction. (Count)
board.processor.cores9.core.commitStats0.committedInstType::SimdFloatDiv            0      0.00%     56.01% # Class of committed instruction. (Count)
board.processor.cores9.core.commitStats0.committedInstType::SimdFloatMisc            0      0.00%     56.01% # Class of committed instruction. (Count)
board.processor.cores9.core.commitStats0.committedInstType::SimdFloatMult        62500      3.08%     59.08% # Class of committed instruction. (Count)
board.processor.cores9.core.commitStats0.committedInstType::SimdFloatMultAcc            0      0.00%     59.08% # Class of committed instruction. (Count)
board.processor.cores9.core.commitStats0.committedInstType::SimdFloatMatMultAcc            0      0.00%     59.08% # Class of committed instruction. (Count)
board.processor.cores9.core.commitStats0.committedInstType::SimdFloatSqrt            0      0.00%     59.08% # Class of committed instruction. (Count)
board.processor.cores9.core.commitStats0.committedInstType::SimdReduceAdd            0      0.00%     59.08% # Class of committed instruction. (Count)
board.processor.cores9.core.commitStats0.committedInstType::SimdReduceAlu            0      0.00%     59.08% # Class of committed instruction. (Count)
board.processor.cores9.core.commitStats0.committedInstType::SimdReduceCmp            0      0.00%     59.08% # Class of committed instruction. (Count)
board.processor.cores9.core.commitStats0.committedInstType::SimdFloatReduceAdd            0      0.00%     59.08% # Class of committed instruction. (Count)
board.processor.cores9.core.commitStats0.committedInstType::SimdFloatReduceCmp            0      0.00%     59.08% # Class of committed instruction. (Count)
board.processor.cores9.core.commitStats0.committedInstType::SimdAes            0      0.00%     59.08% # Class of committed instruction. (Count)
board.processor.cores9.core.commitStats0.committedInstType::SimdAesMix            0      0.00%     59.08% # Class of committed instruction. (Count)
board.processor.cores9.core.commitStats0.committedInstType::SimdSha1Hash            0      0.00%     59.08% # Class of committed instruction. (Count)
board.processor.cores9.core.commitStats0.committedInstType::SimdSha1Hash2            0      0.00%     59.08% # Class of committed instruction. (Count)
board.processor.cores9.core.commitStats0.committedInstType::SimdSha256Hash            0      0.00%     59.08% # Class of committed instruction. (Count)
board.processor.cores9.core.commitStats0.committedInstType::SimdSha256Hash2            0      0.00%     59.08% # Class of committed instruction. (Count)
board.processor.cores9.core.commitStats0.committedInstType::SimdShaSigma2            0      0.00%     59.08% # Class of committed instruction. (Count)
board.processor.cores9.core.commitStats0.committedInstType::SimdShaSigma3            0      0.00%     59.08% # Class of committed instruction. (Count)
board.processor.cores9.core.commitStats0.committedInstType::SimdPredAlu            0      0.00%     59.08% # Class of committed instruction. (Count)
board.processor.cores9.core.commitStats0.committedInstType::Matrix            0      0.00%     59.08% # Class of committed instruction. (Count)
board.processor.cores9.core.commitStats0.committedInstType::MatrixMov            0      0.00%     59.08% # Class of committed instruction. (Count)
board.processor.cores9.core.commitStats0.committedInstType::MatrixOP            0      0.00%     59.08% # Class of committed instruction. (Count)
board.processor.cores9.core.commitStats0.committedInstType::MemRead       518280     25.52%     84.60% # Class of committed instruction. (Count)
board.processor.cores9.core.commitStats0.committedInstType::MemWrite        62671      3.09%     87.69% # Class of committed instruction. (Count)
board.processor.cores9.core.commitStats0.committedInstType::FloatMemRead       187525      9.23%     96.92% # Class of committed instruction. (Count)
board.processor.cores9.core.commitStats0.committedInstType::FloatMemWrite        62519      3.08%    100.00% # Class of committed instruction. (Count)
board.processor.cores9.core.commitStats0.committedInstType::IprAccess            0      0.00%    100.00% # Class of committed instruction. (Count)
board.processor.cores9.core.commitStats0.committedInstType::InstPrefetch            0      0.00%    100.00% # Class of committed instruction. (Count)
board.processor.cores9.core.commitStats0.committedInstType::SimdUnitStrideLoad            0      0.00%    100.00% # Class of committed instruction. (Count)
board.processor.cores9.core.commitStats0.committedInstType::SimdUnitStrideStore            0      0.00%    100.00% # Class of committed instruction. (Count)
board.processor.cores9.core.commitStats0.committedInstType::SimdUnitStrideMaskLoad            0      0.00%    100.00% # Class of committed instruction. (Count)
board.processor.cores9.core.commitStats0.committedInstType::SimdUnitStrideMaskStore            0      0.00%    100.00% # Class of committed instruction. (Count)
board.processor.cores9.core.commitStats0.committedInstType::SimdStridedLoad            0      0.00%    100.00% # Class of committed instruction. (Count)
board.processor.cores9.core.commitStats0.committedInstType::SimdStridedStore            0      0.00%    100.00% # Class of committed instruction. (Count)
board.processor.cores9.core.commitStats0.committedInstType::SimdIndexedLoad            0      0.00%    100.00% # Class of committed instruction. (Count)
board.processor.cores9.core.commitStats0.committedInstType::SimdIndexedStore            0      0.00%    100.00% # Class of committed instruction. (Count)
board.processor.cores9.core.commitStats0.committedInstType::SimdWholeRegisterLoad            0      0.00%    100.00% # Class of committed instruction. (Count)
board.processor.cores9.core.commitStats0.committedInstType::SimdWholeRegisterStore            0      0.00%    100.00% # Class of committed instruction. (Count)
board.processor.cores9.core.commitStats0.committedInstType::SimdUnitStrideFaultOnlyFirstLoad            0      0.00%    100.00% # Class of committed instruction. (Count)
board.processor.cores9.core.commitStats0.committedInstType::SimdUnitStrideSegmentedLoad            0      0.00%    100.00% # Class of committed instruction. (Count)
board.processor.cores9.core.commitStats0.committedInstType::SimdUnitStrideSegmentedStore            0      0.00%    100.00% # Class of committed instruction. (Count)
board.processor.cores9.core.commitStats0.committedInstType::SimdExt            0      0.00%    100.00% # Class of committed instruction. (Count)
board.processor.cores9.core.commitStats0.committedInstType::SimdFloatExt            0      0.00%    100.00% # Class of committed instruction. (Count)
board.processor.cores9.core.commitStats0.committedInstType::SimdConfig            0      0.00%    100.00% # Class of committed instruction. (Count)
board.processor.cores9.core.commitStats0.committedInstType::total      2030960                       # Class of committed instruction. (Count)
board.processor.cores9.core.executeStats0.numInsts            0                       # Number of executed instructions (Count)
board.processor.cores9.core.executeStats0.numNop            0                       # Number of nop insts executed (Count)
board.processor.cores9.core.executeStats0.numBranches            0                       # Number of branches executed (Count)
board.processor.cores9.core.executeStats0.numLoadInsts            0                       # Number of load instructions executed (Count)
board.processor.cores9.core.executeStats0.numStoreInsts            0                       # Number of stores executed (Count)
board.processor.cores9.core.executeStats0.instRate            0                       # Inst execution rate ((Count/Cycle))
board.processor.cores9.core.executeStats0.numFpRegWrites            0                       # Number of times the floating registers were written (Count)
board.processor.cores9.core.executeStats0.numMemRefs            0                       # Number of memory refs (Count)
board.processor.cores9.core.executeStats0.numVecAluAccesses            0                       # Number of vector alu accesses (Count)
board.processor.cores9.core.executeStats0.numDiscardedOps       322594                       # Number of ops (including micro ops) which were discarded before commit (Count)
board.processor.cores9.core.fetch2.intInstructions            0                       # Number of integer instructions successfully decoded (Count)
board.processor.cores9.core.fetch2.fpInstructions            0                       # Number of floating point instructions successfully decoded (Count)
board.processor.cores9.core.fetch2.vecInstructions            0                       # Number of SIMD instructions successfully decoded (Count)
board.processor.cores9.core.fetch2.loadInstructions            0                       # Number of memory load instructions successfully decoded (Count)
board.processor.cores9.core.fetch2.storeInstructions            0                       # Number of memory store instructions successfully decoded (Count)
board.processor.cores9.core.fetch2.amoInstructions            0                       # Number of memory atomic instructions successfully decoded (Count)
board.processor.cores9.core.fetchStats0.numInsts            0                       # Number of instructions fetched (thread level) (Count)
board.processor.cores9.core.fetchStats0.numOps            0                       # Number of ops (including micro ops) fetched (thread level) (Count)
board.processor.cores9.core.fetchStats0.fetchRate            0                       # Number of inst fetches per cycle ((Count/Cycle))
board.processor.cores9.core.fetchStats0.branchRate            0                       # Number of branch fetches per cycle (Ratio)
board.processor.cores9.core.fetchStats0.numFetchSuspends            0                       # Number of times Execute suspended instruction fetching (Count)
board.processor.cores9.core.interrupts.clk_domain.clock         5328                       # Clock period in ticks (Tick)
board.processor.cores9.core.mmu.dtb.rdAccesses       723916                       # TLB accesses on read requests (Count)
board.processor.cores9.core.mmu.dtb.wrAccesses       125204                       # TLB accesses on write requests (Count)
board.processor.cores9.core.mmu.dtb.rdMisses          268                       # TLB misses on read requests (Count)
board.processor.cores9.core.mmu.dtb.wrMisses          126                       # TLB misses on write requests (Count)
board.processor.cores9.core.mmu.dtb.walker.power_state.pwrStateResidencyTicks::UNDEFINED  51747752781                       # Cumulative time (in ticks) in various power states (Tick)
board.processor.cores9.core.mmu.itb.rdAccesses            0                       # TLB accesses on read requests (Count)
board.processor.cores9.core.mmu.itb.wrAccesses       290932                       # TLB accesses on write requests (Count)
board.processor.cores9.core.mmu.itb.rdMisses            0                       # TLB misses on read requests (Count)
board.processor.cores9.core.mmu.itb.wrMisses           22                       # TLB misses on write requests (Count)
board.processor.cores9.core.mmu.itb.walker.power_state.pwrStateResidencyTicks::UNDEFINED  51747752781                       # Cumulative time (in ticks) in various power states (Tick)
board.processor.cores9.core.power_state.pwrStateResidencyTicks::ON  51747752781                       # Cumulative time (in ticks) in various power states (Tick)
board.processor.cores9.core.thread_0.numInsts      1377334                       # Number of Instructions committed (Count)
board.processor.cores9.core.thread_0.numOps      2030960                       # Number of Ops committed (Count)
board.processor.cores9.core.thread_0.numMemRefs            0                       # Number of Memory References (Count)
board.workload.inst.arm                             0                       # number of arm instructions executed (Count)
board.workload.inst.quiesce                         0                       # number of quiesce instructions executed (Count)
board.processor.cores00.core.idleCycles      72465212                       # Total number of cycles that the object has spent stopped (Unspecified)
board.processor.cores00.core.tickCycles      82933445                       # Number of cycles that the object actually ticked (Unspecified)
board.processor.cores01.core.idleCycles       8127926                       # Total number of cycles that the object has spent stopped (Unspecified)
board.processor.cores01.core.tickCycles       3112901                       # Number of cycles that the object actually ticked (Unspecified)
board.processor.cores02.core.idleCycles       8140911                       # Total number of cycles that the object has spent stopped (Unspecified)
board.processor.cores02.core.tickCycles       3090402                       # Number of cycles that the object actually ticked (Unspecified)
board.processor.cores03.core.idleCycles       8138180                       # Total number of cycles that the object has spent stopped (Unspecified)
board.processor.cores03.core.tickCycles       3086418                       # Number of cycles that the object actually ticked (Unspecified)
board.processor.cores04.core.idleCycles       8178691                       # Total number of cycles that the object has spent stopped (Unspecified)
board.processor.cores04.core.tickCycles       3038135                       # Number of cycles that the object actually ticked (Unspecified)
board.processor.cores05.core.idleCycles       8134337                       # Total number of cycles that the object has spent stopped (Unspecified)
board.processor.cores05.core.tickCycles       3074896                       # Number of cycles that the object actually ticked (Unspecified)
board.processor.cores06.core.idleCycles       8130585                       # Total number of cycles that the object has spent stopped (Unspecified)
board.processor.cores06.core.tickCycles       3072422                       # Number of cycles that the object actually ticked (Unspecified)
board.processor.cores07.core.idleCycles       8175406                       # Total number of cycles that the object has spent stopped (Unspecified)
board.processor.cores07.core.tickCycles       3020548                       # Number of cycles that the object actually ticked (Unspecified)
board.processor.cores08.core.idleCycles       8135568                       # Total number of cycles that the object has spent stopped (Unspecified)
board.processor.cores08.core.tickCycles       3054112                       # Number of cycles that the object actually ticked (Unspecified)
board.processor.cores09.core.idleCycles       8192930                       # Total number of cycles that the object has spent stopped (Unspecified)
board.processor.cores09.core.tickCycles       2990172                       # Number of cycles that the object actually ticked (Unspecified)
board.processor.cores10.core.idleCycles       8231202                       # Total number of cycles that the object has spent stopped (Unspecified)
board.processor.cores10.core.tickCycles       2944722                       # Number of cycles that the object actually ticked (Unspecified)
board.processor.cores11.core.idleCycles       8220221                       # Total number of cycles that the object has spent stopped (Unspecified)
board.processor.cores11.core.tickCycles       2949583                       # Number of cycles that the object actually ticked (Unspecified)
board.processor.cores12.core.idleCycles       8243501                       # Total number of cycles that the object has spent stopped (Unspecified)
board.processor.cores12.core.tickCycles       2919293                       # Number of cycles that the object actually ticked (Unspecified)
board.processor.cores13.core.idleCycles       8244024                       # Total number of cycles that the object has spent stopped (Unspecified)
board.processor.cores13.core.tickCycles       2911726                       # Number of cycles that the object actually ticked (Unspecified)
board.processor.cores14.core.idleCycles       8281272                       # Total number of cycles that the object has spent stopped (Unspecified)
board.processor.cores14.core.tickCycles       2867116                       # Number of cycles that the object actually ticked (Unspecified)
board.processor.cores15.core.idleCycles       8199331                       # Total number of cycles that the object has spent stopped (Unspecified)
board.processor.cores15.core.tickCycles       2942662                       # Number of cycles that the object actually ticked (Unspecified)

---------- End Simulation Statistics   ----------
