
---------- Begin Simulation Statistics ----------
simSeconds                                   0.108338                       # Number of seconds simulated (Second)
simTicks                                 108337711000                       # Number of ticks simulated (Tick)
finalTick                                108337711000                       # Number of ticks from beginning of simulation (restored from checkpoints and never reset) (Tick)
simFreq                                  1000000000000                       # The number of ticks per simulated second ((Tick/Second))
hostSeconds                                    178.10                       # Real time elapsed on the host (Second)
hostTickRate                                608297701                       # The number of ticks simulated per host second (ticks/s) ((Tick/Second))
hostMemory                                    2789952                       # Number of bytes of host memory used (Byte)
simInsts                                     35169480                       # Number of instructions simulated (Count)
simOps                                       65946337                       # Number of ops (including micro ops) simulated (Count)
hostInstRate                                   197470                       # Simulator instruction rate (inst/s) ((Count/Second))
hostOpRate                                     370277                       # Simulator op (including micro ops) rate (op/s) ((Count/Second))
system.clk_domain.clock                          1000                       # Clock period in ticks (Tick)
system.cpu0.numCycles                       216675422                       # Number of cpu cycles simulated (Cycle)
system.cpu0.cpi                              6.442239                       # CPI: cycles per instruction (core level) ((Cycle/Count))
system.cpu0.ipc                              0.155226                       # IPC: instructions per cycle (core level) ((Count/Cycle))
system.cpu0.numWorkItemsStarted                     0                       # Number of work items this cpu started (Count)
system.cpu0.numWorkItemsCompleted                   0                       # Number of work items this cpu completed (Count)
system.cpu0.clk_domain.clock                      500                       # Clock period in ticks (Tick)
system.cpu0.clk_domain.voltage_domain.voltage            1                       # Voltage in Volts (Volt)
system.cpu0.commitStats0.numInsts            33633560                       # Number of instructions committed (thread level) (Count)
system.cpu0.commitStats0.numOps              62850126                       # Number of ops (including micro ops) committed (thread level) (Count)
system.cpu0.commitStats0.numInstsNotNOP             0                       # Number of instructions committed excluding NOPs or prefetches (Count)
system.cpu0.commitStats0.numOpsNotNOP               0                       # Number of Ops (including micro ops) Simulated (Count)
system.cpu0.commitStats0.cpi                 6.442239                       # CPI: cycles per instruction (thread level) ((Cycle/Count))
system.cpu0.commitStats0.ipc                 0.155226                       # IPC: instructions per cycle (thread level) ((Count/Cycle))
system.cpu0.commitStats0.numMemRefs                 0                       # Number of memory references committed (Count)
system.cpu0.commitStats0.numFpInsts           3363304                       # Number of float instructions (Count)
system.cpu0.commitStats0.numIntInsts         59859599                       # Number of integer instructions (Count)
system.cpu0.commitStats0.numLoadInsts         8840556                       # Number of load instructions (Count)
system.cpu0.commitStats0.numStoreInsts        3766462                       # Number of store instructions (Count)
system.cpu0.commitStats0.numVecInsts                0                       # Number of vector instructions (Count)
system.cpu0.commitStats0.committedInstType::No_OpClass       750178      1.19%      1.19% # Class of committed instruction. (Count)
system.cpu0.commitStats0.committedInstType::IntAlu     46675456     74.26%     75.46% # Class of committed instruction. (Count)
system.cpu0.commitStats0.committedInstType::IntMult       622142      0.99%     76.45% # Class of committed instruction. (Count)
system.cpu0.commitStats0.committedInstType::IntDiv        86993      0.14%     76.59% # Class of committed instruction. (Count)
system.cpu0.commitStats0.committedInstType::FloatAdd       201325      0.32%     76.91% # Class of committed instruction. (Count)
system.cpu0.commitStats0.committedInstType::FloatCmp           31      0.00%     76.91% # Class of committed instruction. (Count)
system.cpu0.commitStats0.committedInstType::FloatCvt         6880      0.01%     76.92% # Class of committed instruction. (Count)
system.cpu0.commitStats0.committedInstType::FloatMult           15      0.00%     76.92% # Class of committed instruction. (Count)
system.cpu0.commitStats0.committedInstType::FloatMultAcc            0      0.00%     76.92% # Class of committed instruction. (Count)
system.cpu0.commitStats0.committedInstType::FloatDiv           15      0.00%     76.92% # Class of committed instruction. (Count)
system.cpu0.commitStats0.committedInstType::FloatMisc            0      0.00%     76.92% # Class of committed instruction. (Count)
system.cpu0.commitStats0.committedInstType::FloatSqrt            0      0.00%     76.92% # Class of committed instruction. (Count)
system.cpu0.commitStats0.committedInstType::SimdAdd        18860      0.03%     76.95% # Class of committed instruction. (Count)
system.cpu0.commitStats0.committedInstType::SimdAddAcc            0      0.00%     76.95% # Class of committed instruction. (Count)
system.cpu0.commitStats0.committedInstType::SimdAlu       624610      0.99%     77.94% # Class of committed instruction. (Count)
system.cpu0.commitStats0.committedInstType::SimdCmp         3090      0.00%     77.95% # Class of committed instruction. (Count)
system.cpu0.commitStats0.committedInstType::SimdCvt        76866      0.12%     78.07% # Class of committed instruction. (Count)
system.cpu0.commitStats0.committedInstType::SimdMisc       349882      0.56%     78.63% # Class of committed instruction. (Count)
system.cpu0.commitStats0.committedInstType::SimdMult            0      0.00%     78.63% # Class of committed instruction. (Count)
system.cpu0.commitStats0.committedInstType::SimdMultAcc            0      0.00%     78.63% # Class of committed instruction. (Count)
system.cpu0.commitStats0.committedInstType::SimdMatMultAcc            0      0.00%     78.63% # Class of committed instruction. (Count)
system.cpu0.commitStats0.committedInstType::SimdShift         8286      0.01%     78.64% # Class of committed instruction. (Count)
system.cpu0.commitStats0.committedInstType::SimdShiftAcc            0      0.00%     78.64% # Class of committed instruction. (Count)
system.cpu0.commitStats0.committedInstType::SimdDiv            0      0.00%     78.64% # Class of committed instruction. (Count)
system.cpu0.commitStats0.committedInstType::SimdSqrt            0      0.00%     78.64% # Class of committed instruction. (Count)
system.cpu0.commitStats0.committedInstType::SimdFloatAdd        90932      0.14%     78.78% # Class of committed instruction. (Count)
system.cpu0.commitStats0.committedInstType::SimdFloatAlu            0      0.00%     78.78% # Class of committed instruction. (Count)
system.cpu0.commitStats0.committedInstType::SimdFloatCmp            0      0.00%     78.78% # Class of committed instruction. (Count)
system.cpu0.commitStats0.committedInstType::SimdFloatCvt       545653      0.87%     79.65% # Class of committed instruction. (Count)
system.cpu0.commitStats0.committedInstType::SimdFloatDiv            5      0.00%     79.65% # Class of committed instruction. (Count)
system.cpu0.commitStats0.committedInstType::SimdFloatMisc            0      0.00%     79.65% # Class of committed instruction. (Count)
system.cpu0.commitStats0.committedInstType::SimdFloatMult       181889      0.29%     79.94% # Class of committed instruction. (Count)
system.cpu0.commitStats0.committedInstType::SimdFloatMultAcc            0      0.00%     79.94% # Class of committed instruction. (Count)
system.cpu0.commitStats0.committedInstType::SimdFloatMatMultAcc            0      0.00%     79.94% # Class of committed instruction. (Count)
system.cpu0.commitStats0.committedInstType::SimdFloatSqrt            0      0.00%     79.94% # Class of committed instruction. (Count)
system.cpu0.commitStats0.committedInstType::SimdReduceAdd            0      0.00%     79.94% # Class of committed instruction. (Count)
system.cpu0.commitStats0.committedInstType::SimdReduceAlu            0      0.00%     79.94% # Class of committed instruction. (Count)
system.cpu0.commitStats0.committedInstType::SimdReduceCmp            0      0.00%     79.94% # Class of committed instruction. (Count)
system.cpu0.commitStats0.committedInstType::SimdFloatReduceAdd            0      0.00%     79.94% # Class of committed instruction. (Count)
system.cpu0.commitStats0.committedInstType::SimdFloatReduceCmp            0      0.00%     79.94% # Class of committed instruction. (Count)
system.cpu0.commitStats0.committedInstType::SimdAes            0      0.00%     79.94% # Class of committed instruction. (Count)
system.cpu0.commitStats0.committedInstType::SimdAesMix            0      0.00%     79.94% # Class of committed instruction. (Count)
system.cpu0.commitStats0.committedInstType::SimdSha1Hash            0      0.00%     79.94% # Class of committed instruction. (Count)
system.cpu0.commitStats0.committedInstType::SimdSha1Hash2            0      0.00%     79.94% # Class of committed instruction. (Count)
system.cpu0.commitStats0.committedInstType::SimdSha256Hash            0      0.00%     79.94% # Class of committed instruction. (Count)
system.cpu0.commitStats0.committedInstType::SimdSha256Hash2            0      0.00%     79.94% # Class of committed instruction. (Count)
system.cpu0.commitStats0.committedInstType::SimdShaSigma2            0      0.00%     79.94% # Class of committed instruction. (Count)
system.cpu0.commitStats0.committedInstType::SimdShaSigma3            0      0.00%     79.94% # Class of committed instruction. (Count)
system.cpu0.commitStats0.committedInstType::SimdPredAlu            0      0.00%     79.94% # Class of committed instruction. (Count)
system.cpu0.commitStats0.committedInstType::Matrix            0      0.00%     79.94% # Class of committed instruction. (Count)
system.cpu0.commitStats0.committedInstType::MatrixMov            0      0.00%     79.94% # Class of committed instruction. (Count)
system.cpu0.commitStats0.committedInstType::MatrixOP            0      0.00%     79.94% # Class of committed instruction. (Count)
system.cpu0.commitStats0.committedInstType::MemRead      8018531     12.76%     92.70% # Class of committed instruction. (Count)
system.cpu0.commitStats0.committedInstType::MemWrite      3526263      5.61%     98.31% # Class of committed instruction. (Count)
system.cpu0.commitStats0.committedInstType::FloatMemRead       822025      1.31%     99.62% # Class of committed instruction. (Count)
system.cpu0.commitStats0.committedInstType::FloatMemWrite       240199      0.38%    100.00% # Class of committed instruction. (Count)
system.cpu0.commitStats0.committedInstType::IprAccess            0      0.00%    100.00% # Class of committed instruction. (Count)
system.cpu0.commitStats0.committedInstType::InstPrefetch            0      0.00%    100.00% # Class of committed instruction. (Count)
system.cpu0.commitStats0.committedInstType::SimdUnitStrideLoad            0      0.00%    100.00% # Class of committed instruction. (Count)
system.cpu0.commitStats0.committedInstType::SimdUnitStrideStore            0      0.00%    100.00% # Class of committed instruction. (Count)
system.cpu0.commitStats0.committedInstType::SimdUnitStrideMaskLoad            0      0.00%    100.00% # Class of committed instruction. (Count)
system.cpu0.commitStats0.committedInstType::SimdUnitStrideMaskStore            0      0.00%    100.00% # Class of committed instruction. (Count)
system.cpu0.commitStats0.committedInstType::SimdStridedLoad            0      0.00%    100.00% # Class of committed instruction. (Count)
system.cpu0.commitStats0.committedInstType::SimdStridedStore            0      0.00%    100.00% # Class of committed instruction. (Count)
system.cpu0.commitStats0.committedInstType::SimdIndexedLoad            0      0.00%    100.00% # Class of committed instruction. (Count)
system.cpu0.commitStats0.committedInstType::SimdIndexedStore            0      0.00%    100.00% # Class of committed instruction. (Count)
system.cpu0.commitStats0.committedInstType::SimdWholeRegisterLoad            0      0.00%    100.00% # Class of committed instruction. (Count)
system.cpu0.commitStats0.committedInstType::SimdWholeRegisterStore            0      0.00%    100.00% # Class of committed instruction. (Count)
system.cpu0.commitStats0.committedInstType::SimdUnitStrideFaultOnlyFirstLoad            0      0.00%    100.00% # Class of committed instruction. (Count)
system.cpu0.commitStats0.committedInstType::SimdUnitStrideSegmentedLoad            0      0.00%    100.00% # Class of committed instruction. (Count)
system.cpu0.commitStats0.committedInstType::SimdUnitStrideSegmentedStore            0      0.00%    100.00% # Class of committed instruction. (Count)
system.cpu0.commitStats0.committedInstType::SimdExt            0      0.00%    100.00% # Class of committed instruction. (Count)
system.cpu0.commitStats0.committedInstType::SimdFloatExt            0      0.00%    100.00% # Class of committed instruction. (Count)
system.cpu0.commitStats0.committedInstType::SimdConfig            0      0.00%    100.00% # Class of committed instruction. (Count)
system.cpu0.commitStats0.committedInstType::total     62850126                       # Class of committed instruction. (Count)
system.cpu0.commitStats0.committedControl::IsControl      6507649                       # Class of control type instructions committed (Count)
system.cpu0.commitStats0.committedControl::IsDirectControl      5703253                       # Class of control type instructions committed (Count)
system.cpu0.commitStats0.committedControl::IsIndirectControl       803136                       # Class of control type instructions committed (Count)
system.cpu0.commitStats0.committedControl::IsCondControl      4729882                       # Class of control type instructions committed (Count)
system.cpu0.commitStats0.committedControl::IsUncondControl      1776507                       # Class of control type instructions committed (Count)
system.cpu0.commitStats0.committedControl::IsCall       465366                       # Class of control type instructions committed (Count)
system.cpu0.commitStats0.committedControl::IsReturn       465346                       # Class of control type instructions committed (Count)
system.cpu0.exec_context.thread_0.numMatAluAccesses            0                       # Number of matrix alu accesses (Count)
system.cpu0.exec_context.thread_0.numCallsReturns       930712                       # Number of times a function call or return occured (Count)
system.cpu0.exec_context.thread_0.numMatInsts            0                       # Number of matrix instructions (Count)
system.cpu0.exec_context.thread_0.numIdleCycles 8280517.999924                       # Number of idle cycles (Cycle)
system.cpu0.exec_context.thread_0.numBusyCycles 208394904.000076                       # Number of busy cycles (Cycle)
system.cpu0.exec_context.thread_0.notIdleFraction     0.961784                       # Percentage of non-idle cycles (Ratio)
system.cpu0.exec_context.thread_0.idleFraction     0.038216                       # Percentage of idle cycles (Ratio)
system.cpu0.executeStats0.numInsts                  0                       # Number of executed instructions (Count)
system.cpu0.executeStats0.numNop                    0                       # Number of nop insts executed (Count)
system.cpu0.executeStats0.numBranches               0                       # Number of branches executed (Count)
system.cpu0.executeStats0.numLoadInsts              0                       # Number of load instructions executed (Count)
system.cpu0.executeStats0.numStoreInsts      12607018                       # Number of stores executed (Count)
system.cpu0.executeStats0.instRate                  0                       # Inst execution rate ((Count/Cycle))
system.cpu0.executeStats0.numFpAluAccesses      3363304                       # Number of float alu accesses (Count)
system.cpu0.executeStats0.numFpRegReads       4467753                       # Number of times the floating registers were read (Count)
system.cpu0.executeStats0.numFpRegWrites      2696371                       # Number of times the floating registers were written (Count)
system.cpu0.executeStats0.numIntAluAccesses     59859599                       # Number of integer alu accesses (Count)
system.cpu0.executeStats0.numIntRegReads     72011418                       # Number of times the integer registers were read (Count)
system.cpu0.executeStats0.numIntRegWrites     44585338                       # Number of times the integer registers were written (Count)
system.cpu0.executeStats0.numMemRefs         12607018                       # Number of memory refs (Count)
system.cpu0.executeStats0.numMiscRegReads     25725867                       # Number of times the Misc registers were read (Count)
system.cpu0.executeStats0.numMiscRegWrites         4177                       # Number of times the Misc registers were written (Count)
system.cpu0.executeStats0.numVecAluAccesses            0                       # Number of vector alu accesses (Count)
system.cpu0.executeStats0.numDiscardedOps            0                       # Number of ops (including micro ops) which were discarded before commit (Count)
system.cpu0.fetchStats0.numInsts             33633560                       # Number of instructions fetched (thread level) (Count)
system.cpu0.fetchStats0.numOps               62850126                       # Number of ops (including micro ops) fetched (thread level) (Count)
system.cpu0.fetchStats0.fetchRate            0.155226                       # Number of inst fetches per cycle ((Count/Cycle))
system.cpu0.fetchStats0.numBranches           6507649                       # Number of branches fetched (Count)
system.cpu0.fetchStats0.branchRate           0.030034                       # Number of branch fetches per cycle (Ratio)
system.cpu0.fetchStats0.numFetchSuspends            0                       # Number of times Execute suspended instruction fetching (Count)
system.cpu0.interrupts.clk_domain.clock          8000                       # Clock period in ticks (Tick)
system.cpu0.mmu.dtb.rdAccesses                8847296                       # TLB accesses on read requests (Count)
system.cpu0.mmu.dtb.wrAccesses                3768754                       # TLB accesses on write requests (Count)
system.cpu0.mmu.dtb.rdMisses                    11790                       # TLB misses on read requests (Count)
system.cpu0.mmu.dtb.wrMisses                     3626                       # TLB misses on write requests (Count)
system.cpu0.mmu.dtb.walker.power_state.pwrStateResidencyTicks::UNDEFINED 108337711000                       # Cumulative time (in ticks) in various power states (Tick)
system.cpu0.mmu.itb.rdAccesses                      0                       # TLB accesses on read requests (Count)
system.cpu0.mmu.itb.wrAccesses               46461996                       # TLB accesses on write requests (Count)
system.cpu0.mmu.itb.rdMisses                        0                       # TLB misses on read requests (Count)
system.cpu0.mmu.itb.wrMisses                     3669                       # TLB misses on write requests (Count)
system.cpu0.mmu.itb.walker.power_state.pwrStateResidencyTicks::UNDEFINED 108337711000                       # Cumulative time (in ticks) in various power states (Tick)
system.cpu0.power_state.numTransitions              6                       # Number of power state transitions (Count)
system.cpu0.power_state.ticksClkGated::samples            3                       # Distribution of time spent in the clock gated state (Tick)
system.cpu0.power_state.ticksClkGated::mean 1380086333.333333                       # Distribution of time spent in the clock gated state (Tick)
system.cpu0.power_state.ticksClkGated::stdev 2293523732.370255                       # Distribution of time spent in the clock gated state (Tick)
system.cpu0.power_state.ticksClkGated::1000-5e+10            3    100.00%    100.00% # Distribution of time spent in the clock gated state (Tick)
system.cpu0.power_state.ticksClkGated::min_value     37434500                       # Distribution of time spent in the clock gated state (Tick)
system.cpu0.power_state.ticksClkGated::max_value   4028333000                       # Distribution of time spent in the clock gated state (Tick)
system.cpu0.power_state.ticksClkGated::total            3                       # Distribution of time spent in the clock gated state (Tick)
system.cpu0.power_state.pwrStateResidencyTicks::ON 104197452000                       # Cumulative time (in ticks) in various power states (Tick)
system.cpu0.power_state.pwrStateResidencyTicks::CLK_GATED   4140259000                       # Cumulative time (in ticks) in various power states (Tick)
system.cpu0.thread_0.numInsts                       0                       # Number of Instructions committed (Count)
system.cpu0.thread_0.numOps                         0                       # Number of Ops committed (Count)
system.cpu0.thread_0.numMemRefs                     0                       # Number of Memory References (Count)
system.cpu0.workload.numSyscalls               211760                       # Number of system calls (Count)
system.cpu0.workload.drivers0.device.dispatcher.numKernelLaunched            1                       # number of kernel launched (Unspecified)
system.cpu0.workload.drivers0.device.dispatcher.cyclesWaitingForDispatch         4018                       # number of cycles with outstanding wavefronts that are waiting to be dispatched (Unspecified)
system.cpu0.workload.drivers0.device.hsapp.power_state.pwrStateResidencyTicks::UNDEFINED 108337711000                       # Cumulative time (in ticks) in various power states (Tick)
system.cpu0.workload.drivers0.device.hsapp.walker.power_state.pwrStateResidencyTicks::UNDEFINED 108337711000                       # Cumulative time (in ticks) in various power states (Tick)
system.cpu0.workload.drivers0.device.power_state.pwrStateResidencyTicks::UNDEFINED 108337711000                       # Cumulative time (in ticks) in various power states (Tick)
system.cpu0.workload.drivers0.device.walker.power_state.pwrStateResidencyTicks::UNDEFINED 108337711000                       # Cumulative time (in ticks) in various power states (Tick)
system.cpu1.numCycles                       202302914                       # Number of cpu cycles simulated (Cycle)
system.cpu1.cpi                            589.720168                       # CPI: cycles per instruction (core level) ((Cycle/Count))
system.cpu1.ipc                              0.001696                       # IPC: instructions per cycle (core level) ((Count/Cycle))
system.cpu1.numWorkItemsStarted                     0                       # Number of work items this cpu started (Count)
system.cpu1.numWorkItemsCompleted                   0                       # Number of work items this cpu completed (Count)
system.cpu1.clk_domain.clock                      500                       # Clock period in ticks (Tick)
system.cpu1.clk_domain.voltage_domain.voltage            1                       # Voltage in Volts (Volt)
system.cpu1.commitStats0.numInsts              343049                       # Number of instructions committed (thread level) (Count)
system.cpu1.commitStats0.numOps                646997                       # Number of ops (including micro ops) committed (thread level) (Count)
system.cpu1.commitStats0.numInstsNotNOP             0                       # Number of instructions committed excluding NOPs or prefetches (Count)
system.cpu1.commitStats0.numOpsNotNOP               0                       # Number of Ops (including micro ops) Simulated (Count)
system.cpu1.commitStats0.cpi               589.720168                       # CPI: cycles per instruction (thread level) ((Cycle/Count))
system.cpu1.commitStats0.ipc                 0.001696                       # IPC: instructions per cycle (thread level) ((Count/Cycle))
system.cpu1.commitStats0.numMemRefs                 0                       # Number of memory references committed (Count)
system.cpu1.commitStats0.numFpInsts             20444                       # Number of float instructions (Count)
system.cpu1.commitStats0.numIntInsts           624707                       # Number of integer instructions (Count)
system.cpu1.commitStats0.numLoadInsts          149312                       # Number of load instructions (Count)
system.cpu1.commitStats0.numStoreInsts          12447                       # Number of store instructions (Count)
system.cpu1.commitStats0.numVecInsts                0                       # Number of vector instructions (Count)
system.cpu1.commitStats0.committedInstType::No_OpClass         9287      1.44%      1.44% # Class of committed instruction. (Count)
system.cpu1.commitStats0.committedInstType::IntAlu       461683     71.36%     72.79% # Class of committed instruction. (Count)
system.cpu1.commitStats0.committedInstType::IntMult            3      0.00%     72.79% # Class of committed instruction. (Count)
system.cpu1.commitStats0.committedInstType::IntDiv           75      0.01%     72.81% # Class of committed instruction. (Count)
system.cpu1.commitStats0.committedInstType::FloatAdd         2890      0.45%     73.25% # Class of committed instruction. (Count)
system.cpu1.commitStats0.committedInstType::FloatCmp            0      0.00%     73.25% # Class of committed instruction. (Count)
system.cpu1.commitStats0.committedInstType::FloatCvt           48      0.01%     73.26% # Class of committed instruction. (Count)
system.cpu1.commitStats0.committedInstType::FloatMult            0      0.00%     73.26% # Class of committed instruction. (Count)
system.cpu1.commitStats0.committedInstType::FloatMultAcc            0      0.00%     73.26% # Class of committed instruction. (Count)
system.cpu1.commitStats0.committedInstType::FloatDiv            0      0.00%     73.26% # Class of committed instruction. (Count)
system.cpu1.commitStats0.committedInstType::FloatMisc            0      0.00%     73.26% # Class of committed instruction. (Count)
system.cpu1.commitStats0.committedInstType::FloatSqrt            0      0.00%     73.26% # Class of committed instruction. (Count)
system.cpu1.commitStats0.committedInstType::SimdAdd           20      0.00%     73.26% # Class of committed instruction. (Count)
system.cpu1.commitStats0.committedInstType::SimdAddAcc            0      0.00%     73.26% # Class of committed instruction. (Count)
system.cpu1.commitStats0.committedInstType::SimdAlu         2786      0.43%     73.69% # Class of committed instruction. (Count)
system.cpu1.commitStats0.committedInstType::SimdCmp            0      0.00%     73.69% # Class of committed instruction. (Count)
system.cpu1.commitStats0.committedInstType::SimdCvt           40      0.01%     73.70% # Class of committed instruction. (Count)
system.cpu1.commitStats0.committedInstType::SimdMisc         1558      0.24%     73.94% # Class of committed instruction. (Count)
system.cpu1.commitStats0.committedInstType::SimdMult            0      0.00%     73.94% # Class of committed instruction. (Count)
system.cpu1.commitStats0.committedInstType::SimdMultAcc            0      0.00%     73.94% # Class of committed instruction. (Count)
system.cpu1.commitStats0.committedInstType::SimdMatMultAcc            0      0.00%     73.94% # Class of committed instruction. (Count)
system.cpu1.commitStats0.committedInstType::SimdShift           21      0.00%     73.94% # Class of committed instruction. (Count)
system.cpu1.commitStats0.committedInstType::SimdShiftAcc            0      0.00%     73.94% # Class of committed instruction. (Count)
system.cpu1.commitStats0.committedInstType::SimdDiv            0      0.00%     73.94% # Class of committed instruction. (Count)
system.cpu1.commitStats0.committedInstType::SimdSqrt            0      0.00%     73.94% # Class of committed instruction. (Count)
system.cpu1.commitStats0.committedInstType::SimdFloatAdd         1365      0.21%     74.15% # Class of committed instruction. (Count)
system.cpu1.commitStats0.committedInstType::SimdFloatAlu            0      0.00%     74.15% # Class of committed instruction. (Count)
system.cpu1.commitStats0.committedInstType::SimdFloatCmp            0      0.00%     74.15% # Class of committed instruction. (Count)
system.cpu1.commitStats0.committedInstType::SimdFloatCvt         4089      0.63%     74.79% # Class of committed instruction. (Count)
system.cpu1.commitStats0.committedInstType::SimdFloatDiv            7      0.00%     74.79% # Class of committed instruction. (Count)
system.cpu1.commitStats0.committedInstType::SimdFloatMisc            0      0.00%     74.79% # Class of committed instruction. (Count)
system.cpu1.commitStats0.committedInstType::SimdFloatMult         1366      0.21%     75.00% # Class of committed instruction. (Count)
system.cpu1.commitStats0.committedInstType::SimdFloatMultAcc            0      0.00%     75.00% # Class of committed instruction. (Count)
system.cpu1.commitStats0.committedInstType::SimdFloatMatMultAcc            0      0.00%     75.00% # Class of committed instruction. (Count)
system.cpu1.commitStats0.committedInstType::SimdFloatSqrt            0      0.00%     75.00% # Class of committed instruction. (Count)
system.cpu1.commitStats0.committedInstType::SimdReduceAdd            0      0.00%     75.00% # Class of committed instruction. (Count)
system.cpu1.commitStats0.committedInstType::SimdReduceAlu            0      0.00%     75.00% # Class of committed instruction. (Count)
system.cpu1.commitStats0.committedInstType::SimdReduceCmp            0      0.00%     75.00% # Class of committed instruction. (Count)
system.cpu1.commitStats0.committedInstType::SimdFloatReduceAdd            0      0.00%     75.00% # Class of committed instruction. (Count)
system.cpu1.commitStats0.committedInstType::SimdFloatReduceCmp            0      0.00%     75.00% # Class of committed instruction. (Count)
system.cpu1.commitStats0.committedInstType::SimdAes            0      0.00%     75.00% # Class of committed instruction. (Count)
system.cpu1.commitStats0.committedInstType::SimdAesMix            0      0.00%     75.00% # Class of committed instruction. (Count)
system.cpu1.commitStats0.committedInstType::SimdSha1Hash            0      0.00%     75.00% # Class of committed instruction. (Count)
system.cpu1.commitStats0.committedInstType::SimdSha1Hash2            0      0.00%     75.00% # Class of committed instruction. (Count)
system.cpu1.commitStats0.committedInstType::SimdSha256Hash            0      0.00%     75.00% # Class of committed instruction. (Count)
system.cpu1.commitStats0.committedInstType::SimdSha256Hash2            0      0.00%     75.00% # Class of committed instruction. (Count)
system.cpu1.commitStats0.committedInstType::SimdShaSigma2            0      0.00%     75.00% # Class of committed instruction. (Count)
system.cpu1.commitStats0.committedInstType::SimdShaSigma3            0      0.00%     75.00% # Class of committed instruction. (Count)
system.cpu1.commitStats0.committedInstType::SimdPredAlu            0      0.00%     75.00% # Class of committed instruction. (Count)
system.cpu1.commitStats0.committedInstType::Matrix            0      0.00%     75.00% # Class of committed instruction. (Count)
system.cpu1.commitStats0.committedInstType::MatrixMov            0      0.00%     75.00% # Class of committed instruction. (Count)
system.cpu1.commitStats0.committedInstType::MatrixOP            0      0.00%     75.00% # Class of committed instruction. (Count)
system.cpu1.commitStats0.committedInstType::MemRead       143701     22.21%     97.21% # Class of committed instruction. (Count)
system.cpu1.commitStats0.committedInstType::MemWrite        11950      1.85%     99.06% # Class of committed instruction. (Count)
system.cpu1.commitStats0.committedInstType::FloatMemRead         5611      0.87%     99.92% # Class of committed instruction. (Count)
system.cpu1.commitStats0.committedInstType::FloatMemWrite          497      0.08%    100.00% # Class of committed instruction. (Count)
system.cpu1.commitStats0.committedInstType::IprAccess            0      0.00%    100.00% # Class of committed instruction. (Count)
system.cpu1.commitStats0.committedInstType::InstPrefetch            0      0.00%    100.00% # Class of committed instruction. (Count)
system.cpu1.commitStats0.committedInstType::SimdUnitStrideLoad            0      0.00%    100.00% # Class of committed instruction. (Count)
system.cpu1.commitStats0.committedInstType::SimdUnitStrideStore            0      0.00%    100.00% # Class of committed instruction. (Count)
system.cpu1.commitStats0.committedInstType::SimdUnitStrideMaskLoad            0      0.00%    100.00% # Class of committed instruction. (Count)
system.cpu1.commitStats0.committedInstType::SimdUnitStrideMaskStore            0      0.00%    100.00% # Class of committed instruction. (Count)
system.cpu1.commitStats0.committedInstType::SimdStridedLoad            0      0.00%    100.00% # Class of committed instruction. (Count)
system.cpu1.commitStats0.committedInstType::SimdStridedStore            0      0.00%    100.00% # Class of committed instruction. (Count)
system.cpu1.commitStats0.committedInstType::SimdIndexedLoad            0      0.00%    100.00% # Class of committed instruction. (Count)
system.cpu1.commitStats0.committedInstType::SimdIndexedStore            0      0.00%    100.00% # Class of committed instruction. (Count)
system.cpu1.commitStats0.committedInstType::SimdWholeRegisterLoad            0      0.00%    100.00% # Class of committed instruction. (Count)
system.cpu1.commitStats0.committedInstType::SimdWholeRegisterStore            0      0.00%    100.00% # Class of committed instruction. (Count)
system.cpu1.commitStats0.committedInstType::SimdUnitStrideFaultOnlyFirstLoad            0      0.00%    100.00% # Class of committed instruction. (Count)
system.cpu1.commitStats0.committedInstType::SimdUnitStrideSegmentedLoad            0      0.00%    100.00% # Class of committed instruction. (Count)
system.cpu1.commitStats0.committedInstType::SimdUnitStrideSegmentedStore            0      0.00%    100.00% # Class of committed instruction. (Count)
system.cpu1.commitStats0.committedInstType::SimdExt            0      0.00%    100.00% # Class of committed instruction. (Count)
system.cpu1.commitStats0.committedInstType::SimdFloatExt            0      0.00%    100.00% # Class of committed instruction. (Count)
system.cpu1.commitStats0.committedInstType::SimdConfig            0      0.00%    100.00% # Class of committed instruction. (Count)
system.cpu1.commitStats0.committedInstType::total       646997                       # Class of committed instruction. (Count)
system.cpu1.commitStats0.committedControl::IsControl       108909                       # Class of control type instructions committed (Count)
system.cpu1.commitStats0.committedControl::IsDirectControl        90649                       # Class of control type instructions committed (Count)
system.cpu1.commitStats0.committedControl::IsIndirectControl        18257                       # Class of control type instructions committed (Count)
system.cpu1.commitStats0.committedControl::IsCondControl        90340                       # Class of control type instructions committed (Count)
system.cpu1.commitStats0.committedControl::IsUncondControl        18566                       # Class of control type instructions committed (Count)
system.cpu1.commitStats0.committedControl::IsCall         9161                       # Class of control type instructions committed (Count)
system.cpu1.commitStats0.committedControl::IsReturn         9153                       # Class of control type instructions committed (Count)
system.cpu1.exec_context.thread_0.numMatAluAccesses            0                       # Number of matrix alu accesses (Count)
system.cpu1.exec_context.thread_0.numCallsReturns        18314                       # Number of times a function call or return occured (Count)
system.cpu1.exec_context.thread_0.numMatInsts            0                       # Number of matrix instructions (Count)
system.cpu1.exec_context.thread_0.numIdleCycles 201056821.976327                       # Number of idle cycles (Cycle)
system.cpu1.exec_context.thread_0.numBusyCycles 1246092.023673                       # Number of busy cycles (Cycle)
system.cpu1.exec_context.thread_0.notIdleFraction     0.006160                       # Percentage of non-idle cycles (Ratio)
system.cpu1.exec_context.thread_0.idleFraction     0.993840                       # Percentage of idle cycles (Ratio)
system.cpu1.executeStats0.numInsts                  0                       # Number of executed instructions (Count)
system.cpu1.executeStats0.numNop                    0                       # Number of nop insts executed (Count)
system.cpu1.executeStats0.numBranches               0                       # Number of branches executed (Count)
system.cpu1.executeStats0.numLoadInsts              0                       # Number of load instructions executed (Count)
system.cpu1.executeStats0.numStoreInsts        161759                       # Number of stores executed (Count)
system.cpu1.executeStats0.instRate                  0                       # Inst execution rate ((Count/Cycle))
system.cpu1.executeStats0.numFpAluAccesses        20444                       # Number of float alu accesses (Count)
system.cpu1.executeStats0.numFpRegReads         24605                       # Number of times the floating registers were read (Count)
system.cpu1.executeStats0.numFpRegWrites        17160                       # Number of times the floating registers were written (Count)
system.cpu1.executeStats0.numIntAluAccesses       624707                       # Number of integer alu accesses (Count)
system.cpu1.executeStats0.numIntRegReads       648156                       # Number of times the integer registers were read (Count)
system.cpu1.executeStats0.numIntRegWrites       410281                       # Number of times the integer registers were written (Count)
system.cpu1.executeStats0.numMemRefs           161759                       # Number of memory refs (Count)
system.cpu1.executeStats0.numMiscRegReads       374576                       # Number of times the Misc registers were read (Count)
system.cpu1.executeStats0.numMiscRegWrites           27                       # Number of times the Misc registers were written (Count)
system.cpu1.executeStats0.numVecAluAccesses            0                       # Number of vector alu accesses (Count)
system.cpu1.executeStats0.numDiscardedOps            0                       # Number of ops (including micro ops) which were discarded before commit (Count)
system.cpu1.fetchStats0.numInsts               343049                       # Number of instructions fetched (thread level) (Count)
system.cpu1.fetchStats0.numOps                 646997                       # Number of ops (including micro ops) fetched (thread level) (Count)
system.cpu1.fetchStats0.fetchRate            0.001696                       # Number of inst fetches per cycle ((Count/Cycle))
system.cpu1.fetchStats0.numBranches            108909                       # Number of branches fetched (Count)
system.cpu1.fetchStats0.branchRate           0.000538                       # Number of branch fetches per cycle (Ratio)
system.cpu1.fetchStats0.numFetchSuspends            0                       # Number of times Execute suspended instruction fetching (Count)
system.cpu1.interrupts.clk_domain.clock          8000                       # Clock period in ticks (Tick)
system.cpu1.mmu.dtb.rdAccesses                 149312                       # TLB accesses on read requests (Count)
system.cpu1.mmu.dtb.wrAccesses                  12447                       # TLB accesses on write requests (Count)
system.cpu1.mmu.dtb.rdMisses                      131                       # TLB misses on read requests (Count)
system.cpu1.mmu.dtb.wrMisses                        2                       # TLB misses on write requests (Count)
system.cpu1.mmu.dtb.walker.power_state.pwrStateResidencyTicks::UNDEFINED 108337711000                       # Cumulative time (in ticks) in various power states (Tick)
system.cpu1.mmu.itb.rdAccesses                      0                       # TLB accesses on read requests (Count)
system.cpu1.mmu.itb.wrAccesses                 453821                       # TLB accesses on write requests (Count)
system.cpu1.mmu.itb.rdMisses                        0                       # TLB misses on read requests (Count)
system.cpu1.mmu.itb.wrMisses                       97                       # TLB misses on write requests (Count)
system.cpu1.mmu.itb.walker.power_state.pwrStateResidencyTicks::UNDEFINED 108337711000                       # Cumulative time (in ticks) in various power states (Tick)
system.cpu1.power_state.numTransitions              3                       # Number of power state transitions (Count)
system.cpu1.power_state.ticksClkGated::samples            2                       # Distribution of time spent in the clock gated state (Tick)
system.cpu1.power_state.ticksClkGated::mean   4511705500                       # Distribution of time spent in the clock gated state (Tick)
system.cpu1.power_state.ticksClkGated::stdev 3782382761.924618                       # Distribution of time spent in the clock gated state (Tick)
system.cpu1.power_state.ticksClkGated::1000-5e+10            2    100.00%    100.00% # Distribution of time spent in the clock gated state (Tick)
system.cpu1.power_state.ticksClkGated::min_value   1837157000                       # Distribution of time spent in the clock gated state (Tick)
system.cpu1.power_state.ticksClkGated::max_value   7186254000                       # Distribution of time spent in the clock gated state (Tick)
system.cpu1.power_state.ticksClkGated::total            2                       # Distribution of time spent in the clock gated state (Tick)
system.cpu1.power_state.pwrStateResidencyTicks::ON  99314300000                       # Cumulative time (in ticks) in various power states (Tick)
system.cpu1.power_state.pwrStateResidencyTicks::CLK_GATED   9023411000                       # Cumulative time (in ticks) in various power states (Tick)
system.cpu1.thread_0.numInsts                       0                       # Number of Instructions committed (Count)
system.cpu1.thread_0.numOps                         0                       # Number of Ops committed (Count)
system.cpu1.thread_0.numMemRefs                     0                       # Number of Memory References (Count)
system.cpu2.numCycles                       215531430                       # Number of cpu cycles simulated (Cycle)
system.cpu2.cpi                            152.942258                       # CPI: cycles per instruction (core level) ((Cycle/Count))
system.cpu2.ipc                              0.006538                       # IPC: instructions per cycle (core level) ((Count/Cycle))
system.cpu2.numWorkItemsStarted                     0                       # Number of work items this cpu started (Count)
system.cpu2.numWorkItemsCompleted                   0                       # Number of work items this cpu completed (Count)
system.cpu2.clk_domain.clock                      500                       # Clock period in ticks (Tick)
system.cpu2.clk_domain.voltage_domain.voltage            1                       # Voltage in Volts (Volt)
system.cpu2.commitStats0.numInsts             1409234                       # Number of instructions committed (thread level) (Count)
system.cpu2.commitStats0.numOps               2666397                       # Number of ops (including micro ops) committed (thread level) (Count)
system.cpu2.commitStats0.numInstsNotNOP             0                       # Number of instructions committed excluding NOPs or prefetches (Count)
system.cpu2.commitStats0.numOpsNotNOP               0                       # Number of Ops (including micro ops) Simulated (Count)
system.cpu2.commitStats0.cpi               152.942258                       # CPI: cycles per instruction (thread level) ((Cycle/Count))
system.cpu2.commitStats0.ipc                 0.006538                       # IPC: instructions per cycle (thread level) ((Count/Cycle))
system.cpu2.commitStats0.numMemRefs                 0                       # Number of memory references committed (Count)
system.cpu2.commitStats0.numFpInsts            172039                       # Number of float instructions (Count)
system.cpu2.commitStats0.numIntInsts          2540791                       # Number of integer instructions (Count)
system.cpu2.commitStats0.numLoadInsts          364617                       # Number of load instructions (Count)
system.cpu2.commitStats0.numStoreInsts         267374                       # Number of store instructions (Count)
system.cpu2.commitStats0.numVecInsts                0                       # Number of vector instructions (Count)
system.cpu2.commitStats0.committedInstType::No_OpClass        34947      1.31%      1.31% # Class of committed instruction. (Count)
system.cpu2.commitStats0.committedInstType::IntAlu      1939382     72.73%     74.04% # Class of committed instruction. (Count)
system.cpu2.commitStats0.committedInstType::IntMult         1063      0.04%     74.08% # Class of committed instruction. (Count)
system.cpu2.commitStats0.committedInstType::IntDiv          761      0.03%     74.11% # Class of committed instruction. (Count)
system.cpu2.commitStats0.committedInstType::FloatAdd         9369      0.35%     74.46% # Class of committed instruction. (Count)
system.cpu2.commitStats0.committedInstType::FloatCmp            2      0.00%     74.46% # Class of committed instruction. (Count)
system.cpu2.commitStats0.committedInstType::FloatCvt          417      0.02%     74.48% # Class of committed instruction. (Count)
system.cpu2.commitStats0.committedInstType::FloatMult            1      0.00%     74.48% # Class of committed instruction. (Count)
system.cpu2.commitStats0.committedInstType::FloatMultAcc            0      0.00%     74.48% # Class of committed instruction. (Count)
system.cpu2.commitStats0.committedInstType::FloatDiv            1      0.00%     74.48% # Class of committed instruction. (Count)
system.cpu2.commitStats0.committedInstType::FloatMisc            0      0.00%     74.48% # Class of committed instruction. (Count)
system.cpu2.commitStats0.committedInstType::FloatSqrt            0      0.00%     74.48% # Class of committed instruction. (Count)
system.cpu2.commitStats0.committedInstType::SimdAdd          338      0.01%     74.49% # Class of committed instruction. (Count)
system.cpu2.commitStats0.committedInstType::SimdAddAcc            0      0.00%     74.49% # Class of committed instruction. (Count)
system.cpu2.commitStats0.committedInstType::SimdAlu        16957      0.64%     75.13% # Class of committed instruction. (Count)
system.cpu2.commitStats0.committedInstType::SimdCmp           12      0.00%     75.13% # Class of committed instruction. (Count)
system.cpu2.commitStats0.committedInstType::SimdCvt          394      0.01%     75.14% # Class of committed instruction. (Count)
system.cpu2.commitStats0.committedInstType::SimdMisc         5844      0.22%     75.36% # Class of committed instruction. (Count)
system.cpu2.commitStats0.committedInstType::SimdMult            0      0.00%     75.36% # Class of committed instruction. (Count)
system.cpu2.commitStats0.committedInstType::SimdMultAcc            0      0.00%     75.36% # Class of committed instruction. (Count)
system.cpu2.commitStats0.committedInstType::SimdMatMultAcc            0      0.00%     75.36% # Class of committed instruction. (Count)
system.cpu2.commitStats0.committedInstType::SimdShift          170      0.01%     75.37% # Class of committed instruction. (Count)
system.cpu2.commitStats0.committedInstType::SimdShiftAcc            0      0.00%     75.37% # Class of committed instruction. (Count)
system.cpu2.commitStats0.committedInstType::SimdDiv            0      0.00%     75.37% # Class of committed instruction. (Count)
system.cpu2.commitStats0.committedInstType::SimdSqrt            0      0.00%     75.37% # Class of committed instruction. (Count)
system.cpu2.commitStats0.committedInstType::SimdFloatAdd         5103      0.19%     75.56% # Class of committed instruction. (Count)
system.cpu2.commitStats0.committedInstType::SimdFloatAlu            0      0.00%     75.56% # Class of committed instruction. (Count)
system.cpu2.commitStats0.committedInstType::SimdFloatCmp            0      0.00%     75.56% # Class of committed instruction. (Count)
system.cpu2.commitStats0.committedInstType::SimdFloatCvt        14536      0.55%     76.11% # Class of committed instruction. (Count)
system.cpu2.commitStats0.committedInstType::SimdFloatDiv            4      0.00%     76.11% # Class of committed instruction. (Count)
system.cpu2.commitStats0.committedInstType::SimdFloatMisc            0      0.00%     76.11% # Class of committed instruction. (Count)
system.cpu2.commitStats0.committedInstType::SimdFloatMult         5105      0.19%     76.30% # Class of committed instruction. (Count)
system.cpu2.commitStats0.committedInstType::SimdFloatMultAcc            0      0.00%     76.30% # Class of committed instruction. (Count)
system.cpu2.commitStats0.committedInstType::SimdFloatMatMultAcc            0      0.00%     76.30% # Class of committed instruction. (Count)
system.cpu2.commitStats0.committedInstType::SimdFloatSqrt            0      0.00%     76.30% # Class of committed instruction. (Count)
system.cpu2.commitStats0.committedInstType::SimdReduceAdd            0      0.00%     76.30% # Class of committed instruction. (Count)
system.cpu2.commitStats0.committedInstType::SimdReduceAlu            0      0.00%     76.30% # Class of committed instruction. (Count)
system.cpu2.commitStats0.committedInstType::SimdReduceCmp            0      0.00%     76.30% # Class of committed instruction. (Count)
system.cpu2.commitStats0.committedInstType::SimdFloatReduceAdd            0      0.00%     76.30% # Class of committed instruction. (Count)
system.cpu2.commitStats0.committedInstType::SimdFloatReduceCmp            0      0.00%     76.30% # Class of committed instruction. (Count)
system.cpu2.commitStats0.committedInstType::SimdAes            0      0.00%     76.30% # Class of committed instruction. (Count)
system.cpu2.commitStats0.committedInstType::SimdAesMix            0      0.00%     76.30% # Class of committed instruction. (Count)
system.cpu2.commitStats0.committedInstType::SimdSha1Hash            0      0.00%     76.30% # Class of committed instruction. (Count)
system.cpu2.commitStats0.committedInstType::SimdSha1Hash2            0      0.00%     76.30% # Class of committed instruction. (Count)
system.cpu2.commitStats0.committedInstType::SimdSha256Hash            0      0.00%     76.30% # Class of committed instruction. (Count)
system.cpu2.commitStats0.committedInstType::SimdSha256Hash2            0      0.00%     76.30% # Class of committed instruction. (Count)
system.cpu2.commitStats0.committedInstType::SimdShaSigma2            0      0.00%     76.30% # Class of committed instruction. (Count)
system.cpu2.commitStats0.committedInstType::SimdShaSigma3            0      0.00%     76.30% # Class of committed instruction. (Count)
system.cpu2.commitStats0.committedInstType::SimdPredAlu            0      0.00%     76.30% # Class of committed instruction. (Count)
system.cpu2.commitStats0.committedInstType::Matrix            0      0.00%     76.30% # Class of committed instruction. (Count)
system.cpu2.commitStats0.committedInstType::MatrixMov            0      0.00%     76.30% # Class of committed instruction. (Count)
system.cpu2.commitStats0.committedInstType::MatrixOP            0      0.00%     76.30% # Class of committed instruction. (Count)
system.cpu2.commitStats0.committedInstType::MemRead       307739     11.54%     87.84% # Class of committed instruction. (Count)
system.cpu2.commitStats0.committedInstType::MemWrite       210972      7.91%     95.75% # Class of committed instruction. (Count)
system.cpu2.commitStats0.committedInstType::FloatMemRead        56878      2.13%     97.88% # Class of committed instruction. (Count)
system.cpu2.commitStats0.committedInstType::FloatMemWrite        56402      2.12%    100.00% # Class of committed instruction. (Count)
system.cpu2.commitStats0.committedInstType::IprAccess            0      0.00%    100.00% # Class of committed instruction. (Count)
system.cpu2.commitStats0.committedInstType::InstPrefetch            0      0.00%    100.00% # Class of committed instruction. (Count)
system.cpu2.commitStats0.committedInstType::SimdUnitStrideLoad            0      0.00%    100.00% # Class of committed instruction. (Count)
system.cpu2.commitStats0.committedInstType::SimdUnitStrideStore            0      0.00%    100.00% # Class of committed instruction. (Count)
system.cpu2.commitStats0.committedInstType::SimdUnitStrideMaskLoad            0      0.00%    100.00% # Class of committed instruction. (Count)
system.cpu2.commitStats0.committedInstType::SimdUnitStrideMaskStore            0      0.00%    100.00% # Class of committed instruction. (Count)
system.cpu2.commitStats0.committedInstType::SimdStridedLoad            0      0.00%    100.00% # Class of committed instruction. (Count)
system.cpu2.commitStats0.committedInstType::SimdStridedStore            0      0.00%    100.00% # Class of committed instruction. (Count)
system.cpu2.commitStats0.committedInstType::SimdIndexedLoad            0      0.00%    100.00% # Class of committed instruction. (Count)
system.cpu2.commitStats0.committedInstType::SimdIndexedStore            0      0.00%    100.00% # Class of committed instruction. (Count)
system.cpu2.commitStats0.committedInstType::SimdWholeRegisterLoad            0      0.00%    100.00% # Class of committed instruction. (Count)
system.cpu2.commitStats0.committedInstType::SimdWholeRegisterStore            0      0.00%    100.00% # Class of committed instruction. (Count)
system.cpu2.commitStats0.committedInstType::SimdUnitStrideFaultOnlyFirstLoad            0      0.00%    100.00% # Class of committed instruction. (Count)
system.cpu2.commitStats0.committedInstType::SimdUnitStrideSegmentedLoad            0      0.00%    100.00% # Class of committed instruction. (Count)
system.cpu2.commitStats0.committedInstType::SimdUnitStrideSegmentedStore            0      0.00%    100.00% # Class of committed instruction. (Count)
system.cpu2.commitStats0.committedInstType::SimdExt            0      0.00%    100.00% # Class of committed instruction. (Count)
system.cpu2.commitStats0.committedInstType::SimdFloatExt            0      0.00%    100.00% # Class of committed instruction. (Count)
system.cpu2.commitStats0.committedInstType::SimdConfig            0      0.00%    100.00% # Class of committed instruction. (Count)
system.cpu2.commitStats0.committedInstType::total      2666397                       # Class of committed instruction. (Count)
system.cpu2.commitStats0.committedControl::IsControl       283403                       # Class of control type instructions committed (Count)
system.cpu2.commitStats0.committedControl::IsDirectControl       244762                       # Class of control type instructions committed (Count)
system.cpu2.commitStats0.committedControl::IsIndirectControl        38612                       # Class of control type instructions committed (Count)
system.cpu2.commitStats0.committedControl::IsCondControl       202970                       # Class of control type instructions committed (Count)
system.cpu2.commitStats0.committedControl::IsUncondControl        80404                       # Class of control type instructions committed (Count)
system.cpu2.commitStats0.committedControl::IsCall        24338                       # Class of control type instructions committed (Count)
system.cpu2.commitStats0.committedControl::IsReturn        24323                       # Class of control type instructions committed (Count)
system.cpu2.exec_context.thread_0.numMatAluAccesses            0                       # Number of matrix alu accesses (Count)
system.cpu2.exec_context.thread_0.numCallsReturns        48661                       # Number of times a function call or return occured (Count)
system.cpu2.exec_context.thread_0.numMatInsts            0                       # Number of matrix instructions (Count)
system.cpu2.exec_context.thread_0.numIdleCycles 203501596.630180                       # Number of idle cycles (Cycle)
system.cpu2.exec_context.thread_0.numBusyCycles 12029833.369820                       # Number of busy cycles (Cycle)
system.cpu2.exec_context.thread_0.notIdleFraction     0.055815                       # Percentage of non-idle cycles (Ratio)
system.cpu2.exec_context.thread_0.idleFraction     0.944185                       # Percentage of idle cycles (Ratio)
system.cpu2.executeStats0.numInsts                  0                       # Number of executed instructions (Count)
system.cpu2.executeStats0.numNop                    0                       # Number of nop insts executed (Count)
system.cpu2.executeStats0.numBranches               0                       # Number of branches executed (Count)
system.cpu2.executeStats0.numLoadInsts              0                       # Number of load instructions executed (Count)
system.cpu2.executeStats0.numStoreInsts        631991                       # Number of stores executed (Count)
system.cpu2.executeStats0.instRate                  0                       # Inst execution rate ((Count/Cycle))
system.cpu2.executeStats0.numFpAluAccesses       172039                       # Number of float alu accesses (Count)
system.cpu2.executeStats0.numFpRegReads        159925                       # Number of times the floating registers were read (Count)
system.cpu2.executeStats0.numFpRegWrites       105571                       # Number of times the floating registers were written (Count)
system.cpu2.executeStats0.numIntAluAccesses      2540791                       # Number of integer alu accesses (Count)
system.cpu2.executeStats0.numIntRegReads      2732681                       # Number of times the integer registers were read (Count)
system.cpu2.executeStats0.numIntRegWrites      1741940                       # Number of times the integer registers were written (Count)
system.cpu2.executeStats0.numMemRefs           631991                       # Number of memory refs (Count)
system.cpu2.executeStats0.numMiscRegReads      1227733                       # Number of times the Misc registers were read (Count)
system.cpu2.executeStats0.numMiscRegWrites          254                       # Number of times the Misc registers were written (Count)
system.cpu2.executeStats0.numVecAluAccesses            0                       # Number of vector alu accesses (Count)
system.cpu2.executeStats0.numDiscardedOps            0                       # Number of ops (including micro ops) which were discarded before commit (Count)
system.cpu2.fetchStats0.numInsts              1409234                       # Number of instructions fetched (thread level) (Count)
system.cpu2.fetchStats0.numOps                2666397                       # Number of ops (including micro ops) fetched (thread level) (Count)
system.cpu2.fetchStats0.fetchRate            0.006538                       # Number of inst fetches per cycle ((Count/Cycle))
system.cpu2.fetchStats0.numBranches            283403                       # Number of branches fetched (Count)
system.cpu2.fetchStats0.branchRate           0.001315                       # Number of branch fetches per cycle (Ratio)
system.cpu2.fetchStats0.numFetchSuspends            0                       # Number of times Execute suspended instruction fetching (Count)
system.cpu2.interrupts.clk_domain.clock          8000                       # Clock period in ticks (Tick)
system.cpu2.mmu.dtb.rdAccesses                 364646                       # TLB accesses on read requests (Count)
system.cpu2.mmu.dtb.wrAccesses                 267636                       # TLB accesses on write requests (Count)
system.cpu2.mmu.dtb.rdMisses                     1119                       # TLB misses on read requests (Count)
system.cpu2.mmu.dtb.wrMisses                      252                       # TLB misses on write requests (Count)
system.cpu2.mmu.dtb.walker.power_state.pwrStateResidencyTicks::UNDEFINED 108337711000                       # Cumulative time (in ticks) in various power states (Tick)
system.cpu2.mmu.itb.rdAccesses                      0                       # TLB accesses on read requests (Count)
system.cpu2.mmu.itb.wrAccesses                1924277                       # TLB accesses on write requests (Count)
system.cpu2.mmu.itb.rdMisses                        0                       # TLB misses on read requests (Count)
system.cpu2.mmu.itb.wrMisses                      289                       # TLB misses on write requests (Count)
system.cpu2.mmu.itb.walker.power_state.pwrStateResidencyTicks::UNDEFINED 108337711000                       # Cumulative time (in ticks) in various power states (Tick)
system.cpu2.power_state.numTransitions              9                       # Number of power state transitions (Count)
system.cpu2.power_state.ticksClkGated::samples            5                       # Distribution of time spent in the clock gated state (Tick)
system.cpu2.power_state.ticksClkGated::mean    512115400                       # Distribution of time spent in the clock gated state (Tick)
system.cpu2.power_state.ticksClkGated::stdev 842365042.665100                       # Distribution of time spent in the clock gated state (Tick)
system.cpu2.power_state.ticksClkGated::1000-5e+10            5    100.00%    100.00% # Distribution of time spent in the clock gated state (Tick)
system.cpu2.power_state.ticksClkGated::min_value      5458500                       # Distribution of time spent in the clock gated state (Tick)
system.cpu2.power_state.ticksClkGated::max_value   1954982000                       # Distribution of time spent in the clock gated state (Tick)
system.cpu2.power_state.ticksClkGated::total            5                       # Distribution of time spent in the clock gated state (Tick)
system.cpu2.power_state.pwrStateResidencyTicks::ON 105777134000                       # Cumulative time (in ticks) in various power states (Tick)
system.cpu2.power_state.pwrStateResidencyTicks::CLK_GATED   2560577000                       # Cumulative time (in ticks) in various power states (Tick)
system.cpu2.thread_0.numInsts                       0                       # Number of Instructions committed (Count)
system.cpu2.thread_0.numOps                         0                       # Number of Ops committed (Count)
system.cpu2.thread_0.numMemRefs                     0                       # Number of Memory References (Count)
system.cpu3.allLatencyDist::bucket_size         10000                       # delay distribution for all (Unspecified)
system.cpu3.allLatencyDist::min_bucket              0                       # delay distribution for all (Unspecified)
system.cpu3.allLatencyDist::max_bucket        1599999                       # delay distribution for all (Unspecified)
system.cpu3.allLatencyDist::samples             12288                       # delay distribution for all (Unspecified)
system.cpu3.allLatencyDist::mean         5569404.215495                       # delay distribution for all (Unspecified)
system.cpu3.allLatencyDist::stdev        3013435.824598                       # delay distribution for all (Unspecified)
system.cpu3.allLatencyDist::underflows              0      0.00%      0.00% # delay distribution for all (Unspecified)
system.cpu3.allLatencyDist               |           0      0.00%      0.00% |           0      0.00%      0.00% |           0      0.00%      0.00% |           0      0.00%      0.00% |           0      0.00%      0.00% |           0      0.00%      0.00% |           0      0.00%      0.00% |           0      0.00%      0.00% |           0      0.00%      0.00% |           0      0.00%      0.00% |           0      0.00%      0.00% |           0      0.00%      0.00% |           0      0.00%      0.00% |           0      0.00%      0.00% |           0      0.00%      0.00% |           0      0.00%      0.00% |           0      0.00%      0.00% |           0      0.00%      0.00% |           0      0.00%      0.00% |           0      0.00%      0.00% |           0      0.00%      0.00% |           0      0.00%      0.00% |           0      0.00%      0.00% |           0      0.00%      0.00% |           0      0.00%      0.00% |           0      0.00%      0.00% |           0      0.00%      0.00% |           0      0.00%      0.00% |           0      0.00%      0.00% |           0      0.00%      0.00% |           0      0.00%      0.00% |           0      0.00%      0.00% |           0      0.00%      0.00% |           0      0.00%      0.00% |           6      0.05%      0.05% |          14      0.11%      0.16% |           2      0.02%      0.18% |           8      0.07%      0.24% |           0      0.00%      0.24% |           0      0.00%      0.24% |           2      0.02%      0.26% |           2      0.02%      0.28% |         118      0.96%      1.24% |          22      0.18%      1.42% |          14      0.11%      1.53% |          18      0.15%      1.68% |           6      0.05%      1.73% |          12      0.10%      1.82% |           8      0.07%      1.89% |          10      0.08%      1.97% |           7      0.06%      2.03% |           9      0.07%      2.10% |          21      0.17%      2.27% |          16      0.13%      2.40% |          21      0.17%      2.57% |          29      0.24%      2.81% |          20      0.16%      2.97% |          11      0.09%      3.06% |          12      0.10%      3.16% |          10      0.08%      3.24% |           3      0.02%      3.26% |           4      0.03%      3.30% |           4      0.03%      3.33% |           2      0.02%      3.34% |           5      0.04%      3.39% |           0      0.00%      3.39% |           7      0.06%      3.44% |           3      0.02%      3.47% |           3      0.02%      3.49% |           7      0.06%      3.55% |           4      0.03%      3.58% |           2      0.02%      3.60% |           0      0.00%      3.60% |           1      0.01%      3.61% |           0      0.00%      3.61% |           0      0.00%      3.61% |           0      0.00%      3.61% |           0      0.00%      3.61% |           2      0.02%      3.62% |           2      0.02%      3.64% |           8      0.07%      3.70% |           2      0.02%      3.72% |           0      0.00%      3.72% |           6      0.05%      3.77% |           4      0.03%      3.80% |          18      0.15%      3.95% |         126      1.03%      4.97% |          12      0.10%      5.07% |          20      0.16%      5.23% |          12      0.10%      5.33% |          14      0.11%      5.44% |          10      0.08%      5.53% |          22      0.18%      5.70% |          19      0.15%      5.86% |          25      0.20%      6.06% |          13      0.11%      6.17% |          26      0.21%      6.38% |          13      0.11%      6.49% |          18      0.15%      6.63% |          20      0.16%      6.80% |          12      0.10%      6.89% |           6      0.05%      6.94% |           4      0.03%      6.97% |           3      0.02%      7.00% |           2      0.02%      7.01% |           0      0.00%      7.01% |           2      0.02%      7.03% |           0      0.00%      7.03% |           0      0.00%      7.03% |           0      0.00%      7.03% |           6      0.05%      7.08% |           2      0.02%      7.10% |           3      0.02%      7.12% |           8      0.07%      7.19% |           8      0.07%      7.25% |           1      0.01%      7.26% |           0      0.00%      7.26% |           0      0.00%      7.26% |           0      0.00%      7.26% |           0      0.00%      7.26% |           0      0.00%      7.26% |           0      0.00%      7.26% |           0      0.00%      7.26% |           2      0.02%      7.28% |          10      0.08%      7.36% |          13      0.11%      7.46% |          10      0.08%      7.54% |          16      0.13%      7.67% |           6      0.05%      7.72% |          35      0.28%      8.01% |         198      1.61%      9.62% |          39      0.32%      9.94% |          17      0.14%     10.07% |          12      0.10%     10.17% |          10      0.08%     10.25% |          10      0.08%     10.34% |          33      0.27%     10.60% |          22      0.18%     10.78% |          14      0.11%     10.90% |          25      0.20%     11.10% |          21      0.17%     11.27% |           2      0.02%     11.29% |          26      0.21%     11.50% |          20      0.16%     11.66% |           8      0.07%     11.73% |           5      0.04%     11.77% |           2      0.02%     11.78% |           3      0.02%     11.81% |           1      0.01%     11.82% |           1      0.01%     11.82% |           2      0.02%     11.84% |           2      0.02%     11.86% |           4      0.03%     11.89% |           2      0.02%     11.91% |           3      0.02%     11.93% |           2      0.02%     11.95% |           1      0.01%     11.95% |           7      0.06%     12.01% |           1      0.01%     12.02% |           1      0.01%     12.03% # delay distribution for all (Unspecified)
system.cpu3.allLatencyDist::overflows           10810     87.97%    100.00% # delay distribution for all (Unspecified)
system.cpu3.allLatencyDist::min_value          343000                       # delay distribution for all (Unspecified)
system.cpu3.allLatencyDist::max_value        15431000                       # delay distribution for all (Unspecified)
system.cpu3.allLatencyDist::total               12288                       # delay distribution for all (Unspecified)
system.cpu3.loadLatencyDist::bucket_size        10000                       # delay distribution for loads (Unspecified)
system.cpu3.loadLatencyDist::min_bucket             0                       # delay distribution for loads (Unspecified)
system.cpu3.loadLatencyDist::max_bucket       1599999                       # delay distribution for loads (Unspecified)
system.cpu3.loadLatencyDist::samples             8192                       # delay distribution for loads (Unspecified)
system.cpu3.loadLatencyDist::mean        6150276.611328                       # delay distribution for loads (Unspecified)
system.cpu3.loadLatencyDist::stdev       3155959.531261                       # delay distribution for loads (Unspecified)
system.cpu3.loadLatencyDist::underflows             0      0.00%      0.00% # delay distribution for loads (Unspecified)
system.cpu3.loadLatencyDist              |           0      0.00%      0.00% |           0      0.00%      0.00% |           0      0.00%      0.00% |           0      0.00%      0.00% |           0      0.00%      0.00% |           0      0.00%      0.00% |           0      0.00%      0.00% |           0      0.00%      0.00% |           0      0.00%      0.00% |           0      0.00%      0.00% |           0      0.00%      0.00% |           0      0.00%      0.00% |           0      0.00%      0.00% |           0      0.00%      0.00% |           0      0.00%      0.00% |           0      0.00%      0.00% |           0      0.00%      0.00% |           0      0.00%      0.00% |           0      0.00%      0.00% |           0      0.00%      0.00% |           0      0.00%      0.00% |           0      0.00%      0.00% |           0      0.00%      0.00% |           0      0.00%      0.00% |           0      0.00%      0.00% |           0      0.00%      0.00% |           0      0.00%      0.00% |           0      0.00%      0.00% |           0      0.00%      0.00% |           0      0.00%      0.00% |           0      0.00%      0.00% |           0      0.00%      0.00% |           0      0.00%      0.00% |           0      0.00%      0.00% |           4      0.05%      0.05% |           7      0.09%      0.13% |           1      0.01%      0.15% |           4      0.05%      0.20% |           0      0.00%      0.20% |           0      0.00%      0.20% |           1      0.01%      0.21% |           1      0.01%      0.22% |          59      0.72%      0.94% |          11      0.13%      1.07% |           7      0.09%      1.16% |           9      0.11%      1.27% |           3      0.04%      1.31% |           6      0.07%      1.38% |           4      0.05%      1.43% |           6      0.07%      1.50% |           4      0.05%      1.55% |           5      0.06%      1.61% |          13      0.16%      1.77% |          11      0.13%      1.90% |          11      0.13%      2.04% |          15      0.18%      2.22% |          12      0.15%      2.37% |           8      0.10%      2.47% |           7      0.09%      2.55% |           5      0.06%      2.61% |           2      0.02%      2.64% |           2      0.02%      2.66% |           2      0.02%      2.69% |           1      0.01%      2.70% |           3      0.04%      2.73% |           0      0.00%      2.73% |           7      0.09%      2.82% |           3      0.04%      2.86% |           2      0.02%      2.88% |           7      0.09%      2.97% |           4      0.05%      3.02% |           1      0.01%      3.03% |           0      0.00%      3.03% |           1      0.01%      3.04% |           0      0.00%      3.04% |           0      0.00%      3.04% |           0      0.00%      3.04% |           0      0.00%      3.04% |           1      0.01%      3.05% |           1      0.01%      3.06% |           4      0.05%      3.11% |           1      0.01%      3.12% |           0      0.00%      3.12% |           3      0.04%      3.16% |           2      0.02%      3.19% |           9      0.11%      3.30% |          63      0.77%      4.06% |           6      0.07%      4.14% |          10      0.12%      4.26% |           6      0.07%      4.33% |           7      0.09%      4.42% |           5      0.06%      4.48% |          13      0.16%      4.64% |          13      0.16%      4.80% |          14      0.17%      4.97% |           9      0.11%      5.08% |          16      0.20%      5.27% |           8      0.10%      5.37% |          10      0.12%      5.49% |          10      0.12%      5.62% |           7      0.09%      5.70% |           5      0.06%      5.76% |           3      0.04%      5.80% |           2      0.02%      5.82% |           1      0.01%      5.83% |           0      0.00%      5.83% |           1      0.01%      5.85% |           0      0.00%      5.85% |           0      0.00%      5.85% |           0      0.00%      5.85% |           6      0.07%      5.92% |           2      0.02%      5.94% |           2      0.02%      5.97% |           7      0.09%      6.05% |           5      0.06%      6.12% |           1      0.01%      6.13% |           0      0.00%      6.13% |           0      0.00%      6.13% |           0      0.00%      6.13% |           0      0.00%      6.13% |           0      0.00%      6.13% |           0      0.00%      6.13% |           0      0.00%      6.13% |           1      0.01%      6.14% |           5      0.06%      6.20% |           7      0.09%      6.29% |           5      0.06%      6.35% |           8      0.10%      6.45% |           3      0.04%      6.48% |          18      0.22%      6.70% |          99      1.21%      7.91% |          20      0.24%      8.15% |           9      0.11%      8.26% |           6      0.07%      8.34% |           5      0.06%      8.40% |           5      0.06%      8.46% |          17      0.21%      8.67% |          11      0.13%      8.80% |           7      0.09%      8.89% |          13      0.16%      9.05% |          12      0.15%      9.19% |           1      0.01%      9.20% |          14      0.17%      9.38% |          10      0.12%      9.50% |           5      0.06%      9.56% |           4      0.05%      9.61% |           1      0.01%      9.62% |           2      0.02%      9.64% |           1      0.01%      9.66% |           1      0.01%      9.67% |           1      0.01%      9.68% |           1      0.01%      9.69% |           2      0.02%      9.72% |           1      0.01%      9.73% |           3      0.04%      9.77% |           1      0.01%      9.78% |           1      0.01%      9.79% |           5      0.06%      9.85% |           1      0.01%      9.86% |           1      0.01%      9.88% # delay distribution for loads (Unspecified)
system.cpu3.loadLatencyDist::overflows           7383     90.12%    100.00% # delay distribution for loads (Unspecified)
system.cpu3.loadLatencyDist::min_value         343000                       # delay distribution for loads (Unspecified)
system.cpu3.loadLatencyDist::max_value       15431000                       # delay distribution for loads (Unspecified)
system.cpu3.loadLatencyDist::total               8192                       # delay distribution for loads (Unspecified)
system.cpu3.storeLatencyDist::bucket_size        10000                       # delay distribution for stores (Unspecified)
system.cpu3.storeLatencyDist::min_bucket            0                       # delay distribution for stores (Unspecified)
system.cpu3.storeLatencyDist::max_bucket      1599999                       # delay distribution for stores (Unspecified)
system.cpu3.storeLatencyDist::samples            4096                       # delay distribution for stores (Unspecified)
system.cpu3.storeLatencyDist::mean       4407659.423828                       # delay distribution for stores (Unspecified)
system.cpu3.storeLatencyDist::stdev      2302011.570941                       # delay distribution for stores (Unspecified)
system.cpu3.storeLatencyDist::underflows            0      0.00%      0.00% # delay distribution for stores (Unspecified)
[...]
system.cpu3.cacheBlockRoundTrip7::overflows            0                       # Coalsr-to-coalsr time for the Nth cache block in an inst (Unspecified)
system.cpu3.cacheBlockRoundTrip7::min_value            0                       # Coalsr-to-coalsr time for the Nth cache block in an inst (Unspecified)
system.cpu3.cacheBlockRoundTrip7::max_value            0                       # Coalsr-to-coalsr time for the Nth cache block in an inst (Unspecified)
system.cpu3.cacheBlockRoundTrip7::total             0                       # Coalsr-to-coalsr time for the Nth cache block in an inst (Unspecified)
system.cpu3.cacheBlockRoundTrip8::bucket_size        10000                       # Coalsr-to-coalsr time for the Nth cache block in an inst (Unspecified)
system.cpu3.cacheBlockRoundTrip8::min_bucket            0                       # Coalsr-to-coalsr time for the Nth cache block in an inst (Unspecified)
system.cpu3.cacheBlockRoundTrip8::max_bucket      1599999                       # Coalsr-to-coalsr time for the Nth cache block in an inst (Unspecified)
system.cpu3.cacheBlockRoundTrip8::samples            0                       # Coalsr-to-coalsr time for the Nth cache block in an inst (Unspecified)
system.cpu3.cacheBlockRoundTrip8::mean            nan                       # Coalsr-to-coalsr time for the Nth cache block in an inst (Unspecified)
system.cpu3.cacheBlockRoundTrip8::stdev           nan                       # Coalsr-to-coalsr time for the Nth cache block in an inst (Unspecified)
system.cpu3.cacheBlockRoundTrip8::underflows            0                       # Coalsr-to-coalsr time for the Nth cache block in an inst (Unspecified)
system.cpu3.cacheBlockRoundTrip8         |           0                       |           0                       |           0                       |           0                       |           0                       |           0                       |           0                       |           0                       |           0                       |           0                       |           0                       |           0                       |           0                       |           0                       |           0                       |           0                       |           0                       |           0                       |           0                       |           0                       |           0                       |           0                       |           0                       |           0                       |           0                       |           0                       |           0                       |           0                       |           0                       |           0                       |           0                       |           0                       |           0                       |           0                       |           0                       |           0                       |           0                       |           0                       |           0                       |           0                       |           0                       |           0                       |           0                       |           0                       |           0                       |           0                       |           0                       |           0                       |           0                       |           0                       |           0                       |           0                       |           0                       |           0                       |           0                       |           0                       |           0                       |           0                       |           0                       |           0                       |           0                       |           0                       |           0                       |           0                       |           0                       |           0                       |           0                       |           0                       |           0                       |           0                       |           0                       |           0                       |           0                       |           0                       |           0                       |           0                       |           0                       |           0                       |           0                       |           0                       |           0                       |           0                       |           0                       |           0                       |           0                       |           0                       |           0                       |           0                       |           0                       |           0                       |           0                       |           0                       |           0                       |           0                       |           0                       |           0                       |           0                       |           0                       |           0                       |           0                       |           0                       |           0                       |           0                       |           0                       |           0                       |           0                       |           0                       |           0                       |           0                       |           0                       |           0                       |           0                       |           0                       |           0                       |           0                       |           0                       |           0                       |           0                       |           0                       |           0                       |           0                       |           0                       |           0                       |           0                       |           0                       |           0                       |           0                       |           0                       |           0                       |           0                       |           0                       |           0                       |           0                       |           0                       |           0                       |           0                       |           0                       |           0                       |           0                       |           0                       |           0                       |           0                       |           0                       |           0                       |           0                       |           0                       |           0                       |           0                       |           0                       |           0                       |           0                       |           0                       |           0                       |           0                       |           0                       |           0                       |           0                       |           0                       |           0                       |           0                       # Coalsr-to-coalsr time for the Nth cache block in an inst (Unspecified)
system.cpu3.cacheBlockRoundTrip8::overflows            0                       # Coalsr-to-coalsr time for the Nth cache block in an inst (Unspecified)
system.cpu3.cacheBlockRoundTrip8::min_value            0                       # Coalsr-to-coalsr time for the Nth cache block in an inst (Unspecified)
system.cpu3.cacheBlockRoundTrip8::max_value            0                       # Coalsr-to-coalsr time for the Nth cache block in an inst (Unspecified)
system.cpu3.cacheBlockRoundTrip8::total             0                       # Coalsr-to-coalsr time for the Nth cache block in an inst (Unspecified)
system.cpu3.cacheBlockRoundTrip9::bucket_size        10000                       # Coalsr-to-coalsr time for the Nth cache block in an inst (Unspecified)
system.cpu3.cacheBlockRoundTrip9::min_bucket            0                       # Coalsr-to-coalsr time for the Nth cache block in an inst (Unspecified)
system.cpu3.cacheBlockRoundTrip9::max_bucket      1599999                       # Coalsr-to-coalsr time for the Nth cache block in an inst (Unspecified)
system.cpu3.cacheBlockRoundTrip9::samples            0                       # Coalsr-to-coalsr time for the Nth cache block in an inst (Unspecified)
system.cpu3.cacheBlockRoundTrip9::mean            nan                       # Coalsr-to-coalsr time for the Nth cache block in an inst (Unspecified)
system.cpu3.cacheBlockRoundTrip9::stdev           nan                       # Coalsr-to-coalsr time for the Nth cache block in an inst (Unspecified)
system.cpu3.cacheBlockRoundTrip9::underflows            0                       # Coalsr-to-coalsr time for the Nth cache block in an inst (Unspecified)
system.cpu3.cacheBlockRoundTrip9         |           0                       |           0                       |           0                       |           0                       |           0                       |           0                       |           0                       |           0                       |           0                       |           0                       |           0                       |           0                       |           0                       |           0                       |           0                       |           0                       |           0                       |           0                       |           0                       |           0                       |           0                       |           0                       |           0                       |           0                       |           0                       |           0                       |           0                       |           0                       |           0                       |           0                       |           0                       |           0                       |           0                       |           0                       |           0                       |           0                       |           0                       |           0                       |           0                       |           0                       |           0                       |           0                       |           0                       |           0                       |           0                       |           0                       |           0                       |           0                       |           0                       |           0                       |           0                       |           0                       |           0                       |           0                       |           0                       |           0                       |           0                       |           0                       |           0                       |           0                       |           0                       |           0                       |           0                       |           0                       |           0                       |           0                       |           0                       |           0                       |           0                       |           0                       |           0                       |           0                       |           0                       |           0                       |           0                       |           0                       |           0                       |           0                       |           0                       |           0                       |           0                       |           0                       |           0                       |           0                       |           0                       |           0                       |           0                       |           0                       |           0                       |           0                       |           0                       |           0                       |           0                       |           0                       |           0                       |           0                       |           0                       |           0                       |           0                       |           0                       |           0                       |           0                       |           0                       |           0                       |           0                       |           0                       |           0                       |           0                       |           0                       |           0                       |           0                       |           0                       |           0                       |           0                       |           0                       |           0                       |           0                       |           0                       |           0                       |           0                       |           0                       |           0                       |           0                       |           0                       |           0                       |           0                       |           0                       |           0                       |           0                       |           0                       |           0                       |           0                       |           0                       |           0                       |           0                       |           0                       |           0                       |           0                       |           0                       |           0                       |           0                       |           0                       |           0                       |           0                       |           0                       |           0                       |           0                       |           0                       |           0                       |           0                       |           0                       |           0                       |           0                       |           0                       |           0                       |           0                       |           0                       |           0                       |           0                       |           0                       # Coalsr-to-coalsr time for the Nth cache block in an inst (Unspecified)
system.cpu3.cacheBlockRoundTrip9::overflows            0                       # Coalsr-to-coalsr time for the Nth cache block in an inst (Unspecified)
system.cpu3.cacheBlockRoundTrip9::min_value            0                       # Coalsr-to-coalsr time for the Nth cache block in an inst (Unspecified)
system.cpu3.cacheBlockRoundTrip9::max_value            0                       # Coalsr-to-coalsr time for the Nth cache block in an inst (Unspecified)
system.cpu3.cacheBlockRoundTrip9::total             0                       # Coalsr-to-coalsr time for the Nth cache block in an inst (Unspecified)

---------- End Simulation Statistics   ----------
