
---------- Begin Simulation Statistics ----------
simSeconds                                   0.058687                       # Number of seconds simulated (Second)
simTicks                                  58686944976                       # Number of ticks simulated (Tick)
finalTick                                 58686944976                       # Number of ticks from beginning of simulation (restored from checkpoints and never reset) (Tick)
simFreq                                  1000000000000                       # The number of ticks per simulated second ((Tick/Second))
hostSeconds                                    451.95                       # Real time elapsed on the host (Second)
hostTickRate                                129851952                       # The number of ticks simulated per host second (ticks/s) ((Tick/Second))
hostMemory                                    2650268                       # Number of bytes of host memory used (Byte)
simInsts                                     50436101                       # Number of instructions simulated (Count)
simOps                                       80780664                       # Number of ops (including micro ops) simulated (Count)
hostInstRate                                   111596                       # Simulator instruction rate (inst/s) ((Count/Second))
hostOpRate                                     178737                       # Simulator op (including micro ops) rate (op/s) ((Count/Second))
board.cache_hierarchy.ruby_system.delayHistogram::bucket_size           64                       # delay histogram for all message (Unspecified)
board.cache_hierarchy.ruby_system.delayHistogram::max_bucket          639                       # delay histogram for all message (Unspecified)
board.cache_hierarchy.ruby_system.delayHistogram::samples      5294027                       # delay histogram for all message (Unspecified)
board.cache_hierarchy.ruby_system.delayHistogram::mean     0.914003                       # delay histogram for all message (Unspecified)
board.cache_hierarchy.ruby_system.delayHistogram::stdev     2.739029                       # delay histogram for all message (Unspecified)
board.cache_hierarchy.ruby_system.delayHistogram |     5294025    100.00%    100.00% |           0      0.00%    100.00% |           1      0.00%    100.00% |           0      0.00%    100.00% |           0      0.00%    100.00% |           1      0.00%    100.00% |           0      0.00%    100.00% |           0      0.00%    100.00% |           0      0.00%    100.00% |           0      0.00%    100.00% # delay histogram for all message (Unspecified)
board.cache_hierarchy.ruby_system.delayHistogram::total      5294027                       # delay histogram for all message (Unspecified)
board.cache_hierarchy.ruby_system.m_outstandReqHistSeqr::bucket_size            1                       (Unspecified)
board.cache_hierarchy.ruby_system.m_outstandReqHistSeqr::max_bucket            9                       (Unspecified)
board.cache_hierarchy.ruby_system.m_outstandReqHistSeqr::samples     48807807                       (Unspecified)
board.cache_hierarchy.ruby_system.m_outstandReqHistSeqr::mean     1.221055                       (Unspecified)
board.cache_hierarchy.ruby_system.m_outstandReqHistSeqr::gmean     1.163782                       (Unspecified)
board.cache_hierarchy.ruby_system.m_outstandReqHistSeqr::stdev     0.427735                       (Unspecified)
board.cache_hierarchy.ruby_system.m_outstandReqHistSeqr |           0      0.00%      0.00% |    38281354     78.43%     78.43% |    10263685     21.03%     99.46% |      262768      0.54%    100.00% |           0      0.00%    100.00% |           0      0.00%    100.00% |           0      0.00%    100.00% |           0      0.00%    100.00% |           0      0.00%    100.00% |           0      0.00%    100.00% (Unspecified)
board.cache_hierarchy.ruby_system.m_outstandReqHistSeqr::total     48807807                       (Unspecified)
board.cache_hierarchy.ruby_system.m_latencyHistSeqr::bucket_size          256                       (Unspecified)
board.cache_hierarchy.ruby_system.m_latencyHistSeqr::max_bucket         2559                       (Unspecified)
board.cache_hierarchy.ruby_system.m_latencyHistSeqr::samples     48807844                       (Unspecified)
board.cache_hierarchy.ruby_system.m_latencyHistSeqr::mean     4.386467                       (Unspecified)
board.cache_hierarchy.ruby_system.m_latencyHistSeqr::gmean     1.085803                       (Unspecified)
board.cache_hierarchy.ruby_system.m_latencyHistSeqr::stdev    31.304162                       (Unspecified)
board.cache_hierarchy.ruby_system.m_latencyHistSeqr |    48740829     99.86%     99.86% |       24860      0.05%     99.91% |       33047      0.07%     99.98% |        8094      0.02%    100.00% |         590      0.00%    100.00% |         394      0.00%    100.00% |          30      0.00%    100.00% |           0      0.00%    100.00% |           0      0.00%    100.00% |           0      0.00%    100.00% (Unspecified)
board.cache_hierarchy.ruby_system.m_latencyHistSeqr::total     48807844                       (Unspecified)
board.cache_hierarchy.ruby_system.m_hitLatencyHistSeqr::bucket_size            1                       (Unspecified)
board.cache_hierarchy.ruby_system.m_hitLatencyHistSeqr::max_bucket            9                       (Unspecified)
board.cache_hierarchy.ruby_system.m_hitLatencyHistSeqr::samples     48048857                       (Unspecified)
board.cache_hierarchy.ruby_system.m_hitLatencyHistSeqr::mean     1.000001                       (Unspecified)
board.cache_hierarchy.ruby_system.m_hitLatencyHistSeqr::gmean     1.000001                       (Unspecified)
board.cache_hierarchy.ruby_system.m_hitLatencyHistSeqr::stdev     0.000878                       (Unspecified)
board.cache_hierarchy.ruby_system.m_hitLatencyHistSeqr |           0      0.00%      0.00% |    48048820    100.00%    100.00% |          37      0.00%    100.00% |           0      0.00%    100.00% |           0      0.00%    100.00% |           0      0.00%    100.00% |           0      0.00%    100.00% |           0      0.00%    100.00% |           0      0.00%    100.00% |           0      0.00%    100.00% (Unspecified)
board.cache_hierarchy.ruby_system.m_hitLatencyHistSeqr::total     48048857                       (Unspecified)
board.cache_hierarchy.ruby_system.m_missLatencyHistSeqr::bucket_size          256                       (Unspecified)
board.cache_hierarchy.ruby_system.m_missLatencyHistSeqr::max_bucket         2559                       (Unspecified)
board.cache_hierarchy.ruby_system.m_missLatencyHistSeqr::samples       758987                       (Unspecified)
board.cache_hierarchy.ruby_system.m_missLatencyHistSeqr::mean   218.772005                       (Unspecified)
board.cache_hierarchy.ruby_system.m_missLatencyHistSeqr::gmean   199.071322                       (Unspecified)
board.cache_hierarchy.ruby_system.m_missLatencyHistSeqr::stdev   127.789285                       (Unspecified)
board.cache_hierarchy.ruby_system.m_missLatencyHistSeqr |      691972     91.17%     91.17% |       24860      3.28%     94.45% |       33047      4.35%     98.80% |        8094      1.07%     99.87% |         590      0.08%     99.94% |         394      0.05%    100.00% |          30      0.00%    100.00% |           0      0.00%    100.00% |           0      0.00%    100.00% |           0      0.00%    100.00% (Unspecified)
board.cache_hierarchy.ruby_system.m_missLatencyHistSeqr::total       758987                       (Unspecified)
board.cache_hierarchy.ruby_system.delayVCHist.vnet_0::bucket_size           64                       # delay histogram for vnet_0 (Unspecified)
board.cache_hierarchy.ruby_system.delayVCHist.vnet_0::max_bucket          639                       # delay histogram for vnet_0 (Unspecified)
board.cache_hierarchy.ruby_system.delayVCHist.vnet_0::samples      2142596                       # delay histogram for vnet_0 (Unspecified)
board.cache_hierarchy.ruby_system.delayVCHist.vnet_0::mean     2.179344                       # delay histogram for vnet_0 (Unspecified)
board.cache_hierarchy.ruby_system.delayVCHist.vnet_0::stdev     3.926427                       # delay histogram for vnet_0 (Unspecified)
board.cache_hierarchy.ruby_system.delayVCHist.vnet_0 |     2142594    100.00%    100.00% |           0      0.00%    100.00% |           1      0.00%    100.00% |           0      0.00%    100.00% |           0      0.00%    100.00% |           1      0.00%    100.00% |           0      0.00%    100.00% |           0      0.00%    100.00% |           0      0.00%    100.00% |           0      0.00%    100.00% # delay histogram for vnet_0 (Unspecified)
board.cache_hierarchy.ruby_system.delayVCHist.vnet_0::total      2142596                       # delay histogram for vnet_0 (Unspecified)
board.cache_hierarchy.ruby_system.delayVCHist.vnet_1::bucket_size            8                       # delay histogram for vnet_1 (Unspecified)
board.cache_hierarchy.ruby_system.delayVCHist.vnet_1::max_bucket           79                       # delay histogram for vnet_1 (Unspecified)
board.cache_hierarchy.ruby_system.delayVCHist.vnet_1::samples      3024828                       # delay histogram for vnet_1 (Unspecified)
board.cache_hierarchy.ruby_system.delayVCHist.vnet_1::mean     0.055946                       # delay histogram for vnet_1 (Unspecified)
board.cache_hierarchy.ruby_system.delayVCHist.vnet_1::stdev     0.552072                       # delay histogram for vnet_1 (Unspecified)
board.cache_hierarchy.ruby_system.delayVCHist.vnet_1 |     3022209     99.91%     99.91% |        2594      0.09%    100.00% |          16      0.00%    100.00% |           3      0.00%    100.00% |           4      0.00%    100.00% |           2      0.00%    100.00% |           0      0.00%    100.00% |           0      0.00%    100.00% |           0      0.00%    100.00% |           0      0.00%    100.00% # delay histogram for vnet_1 (Unspecified)
board.cache_hierarchy.ruby_system.delayVCHist.vnet_1::total      3024828                       # delay histogram for vnet_1 (Unspecified)
board.cache_hierarchy.ruby_system.delayVCHist.vnet_2::bucket_size            1                       # delay histogram for vnet_2 (Unspecified)
board.cache_hierarchy.ruby_system.delayVCHist.vnet_2::max_bucket            9                       # delay histogram for vnet_2 (Unspecified)
board.cache_hierarchy.ruby_system.delayVCHist.vnet_2::samples       126603                       # delay histogram for vnet_2 (Unspecified)
board.cache_hierarchy.ruby_system.delayVCHist.vnet_2::mean     0.000600                       # delay histogram for vnet_2 (Unspecified)
board.cache_hierarchy.ruby_system.delayVCHist.vnet_2::stdev     0.034645                       # delay histogram for vnet_2 (Unspecified)
board.cache_hierarchy.ruby_system.delayVCHist.vnet_2 |      126565     99.97%     99.97% |           0      0.00%     99.97% |          38      0.03%    100.00% |           0      0.00%    100.00% |           0      0.00%    100.00% |           0      0.00%    100.00% |           0      0.00%    100.00% |           0      0.00%    100.00% |           0      0.00%    100.00% |           0      0.00%    100.00% # delay histogram for vnet_2 (Unspecified)
board.cache_hierarchy.ruby_system.delayVCHist.vnet_2::total       126603                       # delay histogram for vnet_2 (Unspecified)
board.cache_hierarchy.ruby_system.Directory_Controller.Fetch       756743      0.00%      0.00% (Unspecified)
board.cache_hierarchy.ruby_system.Directory_Controller.Data       499696      0.00%      0.00% (Unspecified)
board.cache_hierarchy.ruby_system.Directory_Controller.Memory_Data       756743      0.00%      0.00% (Unspecified)
board.cache_hierarchy.ruby_system.Directory_Controller.Memory_Ack       499696      0.00%      0.00% (Unspecified)
board.cache_hierarchy.ruby_system.Directory_Controller.CleanReplacement       252951      0.00%      0.00% (Unspecified)
board.cache_hierarchy.ruby_system.Directory_Controller.I.Fetch       756743      0.00%      0.00% (Unspecified)
board.cache_hierarchy.ruby_system.Directory_Controller.M.Data       499696      0.00%      0.00% (Unspecified)
board.cache_hierarchy.ruby_system.Directory_Controller.M.CleanReplacement       252951      0.00%      0.00% (Unspecified)
board.cache_hierarchy.ruby_system.Directory_Controller.IM.Memory_Data       756743      0.00%      0.00% (Unspecified)
board.cache_hierarchy.ruby_system.Directory_Controller.MI.Memory_Ack       499696      0.00%      0.00% (Unspecified)
board.cache_hierarchy.ruby_system.L1Cache_Controller.Load |    17304809     71.73%     71.73% |     2274143      9.43%     81.15% |     2272294      9.42%     90.57% |     2274413      9.43%    100.00% (Unspecified)
board.cache_hierarchy.ruby_system.L1Cache_Controller.Load::total     24125659                       (Unspecified)
board.cache_hierarchy.ruby_system.L1Cache_Controller.Ifetch |    10083087     76.64%     76.64% |     1025127      7.79%     84.43% |     1022372      7.77%     92.20% |     1025584      7.80%    100.00% (Unspecified)
board.cache_hierarchy.ruby_system.L1Cache_Controller.Ifetch::total     13156170                       (Unspecified)
board.cache_hierarchy.ruby_system.L1Cache_Controller.Store |     9368977     81.29%     81.29% |      719011      6.24%     87.52% |      719019      6.24%     93.76% |      719008      6.24%    100.00% (Unspecified)
board.cache_hierarchy.ruby_system.L1Cache_Controller.Store::total     11526015                       (Unspecified)
board.cache_hierarchy.ruby_system.L1Cache_Controller.Inv |       33411     26.41%     26.41% |       30947     24.46%     50.87% |       30890     24.42%     75.28% |       31271     24.72%    100.00% (Unspecified)
board.cache_hierarchy.ruby_system.L1Cache_Controller.Inv::total       126519                       (Unspecified)
board.cache_hierarchy.ruby_system.L1Cache_Controller.L1_Replacement |      473062     62.82%     62.82% |       93310     12.39%     75.22% |       93314     12.39%     87.61% |       93309     12.39%    100.00% (Unspecified)
board.cache_hierarchy.ruby_system.L1Cache_Controller.L1_Replacement::total       752995                       (Unspecified)
board.cache_hierarchy.ruby_system.L1Cache_Controller.Fwd_GETX |          17     65.38%     65.38% |           4     15.38%     80.77% |           4     15.38%     96.15% |           1      3.85%    100.00% (Unspecified)
board.cache_hierarchy.ruby_system.L1Cache_Controller.Fwd_GETX::total           26                       (Unspecified)
board.cache_hierarchy.ruby_system.L1Cache_Controller.Fwd_GETS |          39     68.42%     68.42% |          12     21.05%     89.47% |           2      3.51%     92.98% |           4      7.02%    100.00% (Unspecified)
board.cache_hierarchy.ruby_system.L1Cache_Controller.Fwd_GETS::total           57                       (Unspecified)
board.cache_hierarchy.ruby_system.L1Cache_Controller.Fwd_GET_INSTR |           1    100.00%    100.00% |           0      0.00%    100.00% |           0      0.00%    100.00% |           0      0.00%    100.00% (Unspecified)
board.cache_hierarchy.ruby_system.L1Cache_Controller.Fwd_GET_INSTR::total            1                       (Unspecified)
board.cache_hierarchy.ruby_system.L1Cache_Controller.Data |           1    100.00%    100.00% |           0      0.00%    100.00% |           0      0.00%    100.00% |           0      0.00%    100.00% (Unspecified)
board.cache_hierarchy.ruby_system.L1Cache_Controller.Data::total            1                       (Unspecified)
board.cache_hierarchy.ruby_system.L1Cache_Controller.Data_Exclusive |       64500     25.54%     25.54% |       62702     24.83%     50.37% |       62674     24.82%     75.19% |       62663     24.81%    100.00% (Unspecified)
board.cache_hierarchy.ruby_system.L1Cache_Controller.Data_Exclusive::total       252539                       (Unspecified)
board.cache_hierarchy.ruby_system.L1Cache_Controller.DataS_fromL1 |           2      3.45%      3.45% |          22     37.93%     41.38% |          23     39.66%     81.03% |          11     18.97%    100.00% (Unspecified)
board.cache_hierarchy.ruby_system.L1Cache_Controller.DataS_fromL1::total           58                       (Unspecified)
board.cache_hierarchy.ruby_system.L1Cache_Controller.Data_all_Acks |      410844     81.13%     81.13% |       31818      6.28%     87.42% |       31850      6.29%     93.71% |       31867      6.29%    100.00% (Unspecified)
board.cache_hierarchy.ruby_system.L1Cache_Controller.Data_all_Acks::total       506379                       (Unspecified)
board.cache_hierarchy.ruby_system.L1Cache_Controller.Ack |           4     25.00%     25.00% |           2     12.50%     37.50% |           5     31.25%     68.75% |           5     31.25%    100.00% (Unspecified)
board.cache_hierarchy.ruby_system.L1Cache_Controller.Ack::total           16                       (Unspecified)
board.cache_hierarchy.ruby_system.L1Cache_Controller.Ack_all |           3     27.27%     27.27% |           2     18.18%     45.45% |           3     27.27%     72.73% |           3     27.27%    100.00% (Unspecified)
board.cache_hierarchy.ruby_system.L1Cache_Controller.Ack_all::total           11                       (Unspecified)
board.cache_hierarchy.ruby_system.L1Cache_Controller.WB_Ack |      440602     69.95%     69.95% |       63208     10.04%     79.99% |       63211     10.04%     90.02% |       62853      9.98%    100.00% (Unspecified)
board.cache_hierarchy.ruby_system.L1Cache_Controller.WB_Ack::total       629874                       (Unspecified)
board.cache_hierarchy.ruby_system.L1Cache_Controller.NP.Load |       64249     25.51%     25.51% |       62545     24.83%     50.34% |       62548     24.83%     75.17% |       62544     24.83%    100.00% (Unspecified)
board.cache_hierarchy.ruby_system.L1Cache_Controller.NP.Load::total       251886                       (Unspecified)
board.cache_hierarchy.ruby_system.L1Cache_Controller.NP.Ifetch |        2704     84.79%     84.79% |         160      5.02%     89.81% |         163      5.11%     94.92% |         162      5.08%    100.00% (Unspecified)
board.cache_hierarchy.ruby_system.L1Cache_Controller.NP.Ifetch::total         3189                       (Unspecified)
board.cache_hierarchy.ruby_system.L1Cache_Controller.NP.Store |      407133     81.27%     81.27% |       31277      6.24%     87.51% |       31278      6.24%     93.76% |       31277      6.24%    100.00% (Unspecified)
board.cache_hierarchy.ruby_system.L1Cache_Controller.NP.Store::total       500965                       (Unspecified)
board.cache_hierarchy.ruby_system.L1Cache_Controller.NP.Inv |        1197     95.45%     95.45% |          21      1.67%     97.13% |          20      1.59%     98.72% |          16      1.28%    100.00% (Unspecified)
board.cache_hierarchy.ruby_system.L1Cache_Controller.NP.Inv::total         1254                       (Unspecified)
board.cache_hierarchy.ruby_system.L1Cache_Controller.I.Load |         261     34.03%     34.03% |         185     24.12%     58.15% |         167     21.77%     79.92% |         154     20.08%    100.00% (Unspecified)
board.cache_hierarchy.ruby_system.L1Cache_Controller.I.Load::total          767                       (Unspecified)
board.cache_hierarchy.ruby_system.L1Cache_Controller.I.Ifetch |         882     43.95%     43.95% |         375     18.68%     62.63% |         375     18.68%     81.32% |         375     18.68%    100.00% (Unspecified)
board.cache_hierarchy.ruby_system.L1Cache_Controller.I.Ifetch::total         2007                       (Unspecified)
board.cache_hierarchy.ruby_system.L1Cache_Controller.I.Store |         118     72.39%     72.39% |           0      0.00%     72.39% |          16      9.82%     82.21% |          29     17.79%    100.00% (Unspecified)
board.cache_hierarchy.ruby_system.L1Cache_Controller.I.Store::total          163                       (Unspecified)
board.cache_hierarchy.ruby_system.L1Cache_Controller.I.L1_Replacement |       30891     25.43%     25.43% |       30081     24.76%     50.18% |       30083     24.76%     74.95% |       30440     25.05%    100.00% (Unspecified)
board.cache_hierarchy.ruby_system.L1Cache_Controller.I.L1_Replacement::total       121495                       (Unspecified)
board.cache_hierarchy.ruby_system.L1Cache_Controller.S.Load |        1725      2.41%      2.41% |       23917     33.37%     35.77% |       22089     30.82%     66.59% |       23950     33.41%    100.00% (Unspecified)
board.cache_hierarchy.ruby_system.L1Cache_Controller.S.Load::total        71681                       (Unspecified)
board.cache_hierarchy.ruby_system.L1Cache_Controller.S.Ifetch |    10079501     76.64%     76.64% |     1024592      7.79%     84.44% |     1021834      7.77%     92.21% |     1025047      7.79%    100.00% (Unspecified)
board.cache_hierarchy.ruby_system.L1Cache_Controller.S.Ifetch::total     13150974                       (Unspecified)
board.cache_hierarchy.ruby_system.L1Cache_Controller.S.Store |           2     20.00%     20.00% |           2     20.00%     40.00% |           3     30.00%     70.00% |           3     30.00%    100.00% (Unspecified)
board.cache_hierarchy.ruby_system.L1Cache_Controller.S.Store::total           10                       (Unspecified)
board.cache_hierarchy.ruby_system.L1Cache_Controller.S.Inv |        1599     50.27%     50.27% |         525     16.50%     66.77% |         527     16.57%     83.34% |         530     16.66%    100.00% (Unspecified)
board.cache_hierarchy.ruby_system.L1Cache_Controller.S.Inv::total         3181                       (Unspecified)
board.cache_hierarchy.ruby_system.L1Cache_Controller.S.L1_Replacement |        1569     96.49%     96.49% |          21      1.29%     97.79% |          20      1.23%     99.02% |          16      0.98%    100.00% (Unspecified)
board.cache_hierarchy.ruby_system.L1Cache_Controller.S.L1_Replacement::total         1626                       (Unspecified)
board.cache_hierarchy.ruby_system.L1Cache_Controller.E.Load |    10028657     73.87%     73.87% |     1184749      8.73%     82.59% |     1184416      8.72%     91.32% |     1178869      8.68%    100.00% (Unspecified)
board.cache_hierarchy.ruby_system.L1Cache_Controller.E.Load::total     13576691                       (Unspecified)
board.cache_hierarchy.ruby_system.L1Cache_Controller.E.Store |         199     46.28%     46.28% |          92     21.40%     67.67% |          76     17.67%     85.35% |          63     14.65%    100.00% (Unspecified)
board.cache_hierarchy.ruby_system.L1Cache_Controller.E.Store::total          430                       (Unspecified)
board.cache_hierarchy.ruby_system.L1Cache_Controller.E.Inv |       30329     24.97%     24.97% |       30292     24.94%     49.91% |       30237     24.89%     74.80% |       30613     25.20%    100.00% (Unspecified)
board.cache_hierarchy.ruby_system.L1Cache_Controller.E.Inv::total       121471                       (Unspecified)
board.cache_hierarchy.ruby_system.L1Cache_Controller.E.L1_Replacement |       33689     25.97%     25.97% |       32140     24.77%     50.74% |       32140     24.77%     75.51% |       31776     24.49%    100.00% (Unspecified)
board.cache_hierarchy.ruby_system.L1Cache_Controller.E.L1_Replacement::total       129745                       (Unspecified)
board.cache_hierarchy.ruby_system.L1Cache_Controller.E.Fwd_GETX |           1    100.00%    100.00% |           0      0.00%    100.00% |           0      0.00%    100.00% |           0      0.00%    100.00% (Unspecified)
board.cache_hierarchy.ruby_system.L1Cache_Controller.E.Fwd_GETX::total            1                       (Unspecified)
board.cache_hierarchy.ruby_system.L1Cache_Controller.E.Fwd_GETS |           4     21.05%     21.05% |          12     63.16%     84.21% |           0      0.00%     84.21% |           3     15.79%    100.00% (Unspecified)
board.cache_hierarchy.ruby_system.L1Cache_Controller.E.Fwd_GETS::total           19                       (Unspecified)
board.cache_hierarchy.ruby_system.L1Cache_Controller.E.Fwd_GET_INSTR |           1    100.00%    100.00% |           0      0.00%    100.00% |           0      0.00%    100.00% |           0      0.00%    100.00% (Unspecified)
board.cache_hierarchy.ruby_system.L1Cache_Controller.E.Fwd_GET_INSTR::total            1                       (Unspecified)
board.cache_hierarchy.ruby_system.L1Cache_Controller.M.Load |     7209917     70.52%     70.52% |     1002747      9.81%     80.32% |     1003074      9.81%     90.13% |     1008896      9.87%    100.00% (Unspecified)
board.cache_hierarchy.ruby_system.L1Cache_Controller.M.Load::total     10224634                       (Unspecified)
board.cache_hierarchy.ruby_system.L1Cache_Controller.M.Store |     8961525     81.29%     81.29% |      687640      6.24%     87.53% |      687646      6.24%     93.76% |      687636      6.24%    100.00% (Unspecified)
board.cache_hierarchy.ruby_system.L1Cache_Controller.M.Store::total     11024447                       (Unspecified)
board.cache_hierarchy.ruby_system.L1Cache_Controller.M.Inv |         286     46.66%     46.66% |         109     17.78%     64.44% |         106     17.29%     81.73% |         112     18.27%    100.00% (Unspecified)
board.cache_hierarchy.ruby_system.L1Cache_Controller.M.Inv::total          613                       (Unspecified)
board.cache_hierarchy.ruby_system.L1Cache_Controller.M.L1_Replacement |      406913     81.36%     81.36% |       31068      6.21%     87.57% |       31071      6.21%     93.79% |       31077      6.21%    100.00% (Unspecified)
board.cache_hierarchy.ruby_system.L1Cache_Controller.M.L1_Replacement::total       500129                       (Unspecified)
board.cache_hierarchy.ruby_system.L1Cache_Controller.M.Fwd_GETX |          16     64.00%     64.00% |           4     16.00%     80.00% |           4     16.00%     96.00% |           1      4.00%    100.00% (Unspecified)
board.cache_hierarchy.ruby_system.L1Cache_Controller.M.Fwd_GETX::total           25                       (Unspecified)
board.cache_hierarchy.ruby_system.L1Cache_Controller.M.Fwd_GETS |          35     92.11%     92.11% |           0      0.00%     92.11% |           2      5.26%     97.37% |           1      2.63%    100.00% (Unspecified)
board.cache_hierarchy.ruby_system.L1Cache_Controller.M.Fwd_GETS::total           38                       (Unspecified)
board.cache_hierarchy.ruby_system.L1Cache_Controller.IS.Data_Exclusive |       64500     25.54%     25.54% |       62702     24.83%     50.37% |       62674     24.82%     75.19% |       62663     24.81%    100.00% (Unspecified)
board.cache_hierarchy.ruby_system.L1Cache_Controller.IS.Data_Exclusive::total       252539                       (Unspecified)
board.cache_hierarchy.ruby_system.L1Cache_Controller.IS.DataS_fromL1 |           2      3.45%      3.45% |          22     37.93%     41.38% |          23     39.66%     81.03% |          11     18.97%    100.00% (Unspecified)
board.cache_hierarchy.ruby_system.L1Cache_Controller.IS.DataS_fromL1::total           58                       (Unspecified)
board.cache_hierarchy.ruby_system.L1Cache_Controller.IS.Data_all_Acks |        3594     68.43%     68.43% |         541     10.30%     78.73% |         556     10.59%     89.32% |         561     10.68%    100.00% (Unspecified)
board.cache_hierarchy.ruby_system.L1Cache_Controller.IS.Data_all_Acks::total         5252                       (Unspecified)
board.cache_hierarchy.ruby_system.L1Cache_Controller.IM.Data |           1    100.00%    100.00% |           0      0.00%    100.00% |           0      0.00%    100.00% |           0      0.00%    100.00% (Unspecified)
board.cache_hierarchy.ruby_system.L1Cache_Controller.IM.Data::total            1                       (Unspecified)
board.cache_hierarchy.ruby_system.L1Cache_Controller.IM.Data_all_Acks |      407250     81.27%     81.27% |       31277      6.24%     87.51% |       31294      6.24%     93.75% |       31306      6.25%    100.00% (Unspecified)
board.cache_hierarchy.ruby_system.L1Cache_Controller.IM.Data_all_Acks::total       501127                       (Unspecified)
board.cache_hierarchy.ruby_system.L1Cache_Controller.SM.Ack |           4     25.00%     25.00% |           2     12.50%     37.50% |           5     31.25%     68.75% |           5     31.25%    100.00% (Unspecified)
board.cache_hierarchy.ruby_system.L1Cache_Controller.SM.Ack::total           16                       (Unspecified)
board.cache_hierarchy.ruby_system.L1Cache_Controller.SM.Ack_all |           3     27.27%     27.27% |           2     18.18%     45.45% |           3     27.27%     72.73% |           3     27.27%    100.00% (Unspecified)
board.cache_hierarchy.ruby_system.L1Cache_Controller.SM.Ack_all::total           11                       (Unspecified)
board.cache_hierarchy.ruby_system.L1Cache_Controller.M_I.WB_Ack |      440602     69.95%     69.95% |       63208     10.04%     79.99% |       63211     10.04%     90.02% |       62853      9.98%    100.00% (Unspecified)
board.cache_hierarchy.ruby_system.L1Cache_Controller.M_I.WB_Ack::total       629874                       (Unspecified)
board.cache_hierarchy.ruby_system.L2Cache_Controller.L1_GET_INSTR         5430      0.00%      0.00% (Unspecified)
board.cache_hierarchy.ruby_system.L2Cache_Controller.L1_GETS       252961      0.00%      0.00% (Unspecified)
board.cache_hierarchy.ruby_system.L2Cache_Controller.L1_GETX       501173      0.00%      0.00% (Unspecified)
board.cache_hierarchy.ruby_system.L2Cache_Controller.L1_UPGRADE           10      0.00%      0.00% (Unspecified)
board.cache_hierarchy.ruby_system.L2Cache_Controller.L1_PUTX       629874      0.00%      0.00% (Unspecified)
board.cache_hierarchy.ruby_system.L2Cache_Controller.L2_Replacement       499088      0.00%      0.00% (Unspecified)
board.cache_hierarchy.ruby_system.L2Cache_Controller.L2_Replacement_clean       253559      0.00%      0.00% (Unspecified)
board.cache_hierarchy.ruby_system.L2Cache_Controller.Mem_Data       756743      0.00%      0.00% (Unspecified)
board.cache_hierarchy.ruby_system.L2Cache_Controller.Mem_Ack       752647      0.00%      0.00% (Unspecified)
board.cache_hierarchy.ruby_system.L2Cache_Controller.WB_Data          651      0.00%      0.00% (Unspecified)
board.cache_hierarchy.ruby_system.L2Cache_Controller.WB_Data_clean           20      0.00%      0.00% (Unspecified)
board.cache_hierarchy.ruby_system.L2Cache_Controller.Ack         1492      0.00%      0.00% (Unspecified)
board.cache_hierarchy.ruby_system.L2Cache_Controller.Ack_all       124397      0.00%      0.00% (Unspecified)
board.cache_hierarchy.ruby_system.L2Cache_Controller.Unblock           58      0.00%      0.00% (Unspecified)
board.cache_hierarchy.ruby_system.L2Cache_Controller.Exclusive_Unblock       753677      0.00%      0.00% (Unspecified)
board.cache_hierarchy.ruby_system.L2Cache_Controller.NP.L1_GET_INSTR         3507      0.00%      0.00% (Unspecified)
board.cache_hierarchy.ruby_system.L2Cache_Controller.NP.L1_GETS       252175      0.00%      0.00% (Unspecified)
board.cache_hierarchy.ruby_system.L2Cache_Controller.NP.L1_GETX       501061      0.00%      0.00% (Unspecified)
board.cache_hierarchy.ruby_system.L2Cache_Controller.SS.L1_GET_INSTR          733      0.00%      0.00% (Unspecified)
board.cache_hierarchy.ruby_system.L2Cache_Controller.SS.L1_GETS           40      0.00%      0.00% (Unspecified)
board.cache_hierarchy.ruby_system.L2Cache_Controller.SS.L1_GETX            2      0.00%      0.00% (Unspecified)
board.cache_hierarchy.ruby_system.L2Cache_Controller.SS.L1_UPGRADE           10      0.00%      0.00% (Unspecified)
board.cache_hierarchy.ruby_system.L2Cache_Controller.SS.L2_Replacement           27      0.00%      0.00% (Unspecified)
board.cache_hierarchy.ruby_system.L2Cache_Controller.SS.L2_Replacement_clean         2899      0.00%      0.00% (Unspecified)
board.cache_hierarchy.ruby_system.L2Cache_Controller.M.L1_GETS          369      0.00%      0.00% (Unspecified)
board.cache_hierarchy.ruby_system.L2Cache_Controller.M.L1_GETX           39      0.00%      0.00% (Unspecified)
board.cache_hierarchy.ruby_system.L2Cache_Controller.M.L2_Replacement       499056      0.00%      0.00% (Unspecified)
board.cache_hierarchy.ruby_system.L2Cache_Controller.M.L2_Replacement_clean       128581      0.00%      0.00% (Unspecified)
board.cache_hierarchy.ruby_system.L2Cache_Controller.MT.L1_GET_INSTR            1      0.00%      0.00% (Unspecified)
board.cache_hierarchy.ruby_system.L2Cache_Controller.MT.L1_GETS           57      0.00%      0.00% (Unspecified)
board.cache_hierarchy.ruby_system.L2Cache_Controller.MT.L1_GETX           26      0.00%      0.00% (Unspecified)
board.cache_hierarchy.ruby_system.L2Cache_Controller.MT.L1_PUTX       629874      0.00%      0.00% (Unspecified)
board.cache_hierarchy.ruby_system.L2Cache_Controller.MT.L2_Replacement            5      0.00%      0.00% (Unspecified)
board.cache_hierarchy.ruby_system.L2Cache_Controller.MT.L2_Replacement_clean       122079      0.00%      0.00% (Unspecified)
board.cache_hierarchy.ruby_system.L2Cache_Controller.M_I.L1_GET_INSTR          233      0.00%      0.00% (Unspecified)
board.cache_hierarchy.ruby_system.L2Cache_Controller.M_I.L1_GETS          288      0.00%      0.00% (Unspecified)
board.cache_hierarchy.ruby_system.L2Cache_Controller.M_I.L1_GETX           35      0.00%      0.00% (Unspecified)
board.cache_hierarchy.ruby_system.L2Cache_Controller.M_I.Mem_Ack       752647      0.00%      0.00% (Unspecified)
board.cache_hierarchy.ruby_system.L2Cache_Controller.MT_I.WB_Data            5      0.00%      0.00% (Unspecified)
board.cache_hierarchy.ruby_system.L2Cache_Controller.MCT_I.WB_Data          608      0.00%      0.00% (Unspecified)
board.cache_hierarchy.ruby_system.L2Cache_Controller.MCT_I.Ack_all       121471      0.00%      0.00% (Unspecified)
board.cache_hierarchy.ruby_system.L2Cache_Controller.I_I.Ack         1454      0.00%      0.00% (Unspecified)
board.cache_hierarchy.ruby_system.L2Cache_Controller.I_I.Ack_all         2899      0.00%      0.00% (Unspecified)
board.cache_hierarchy.ruby_system.L2Cache_Controller.S_I.Ack           38      0.00%      0.00% (Unspecified)
board.cache_hierarchy.ruby_system.L2Cache_Controller.S_I.Ack_all           27      0.00%      0.00% (Unspecified)
board.cache_hierarchy.ruby_system.L2Cache_Controller.ISS.L1_GETS            5      0.00%      0.00% (Unspecified)
board.cache_hierarchy.ruby_system.L2Cache_Controller.ISS.Mem_Data       252170      0.00%      0.00% (Unspecified)
board.cache_hierarchy.ruby_system.L2Cache_Controller.IS.L1_GET_INSTR          955      0.00%      0.00% (Unspecified)
board.cache_hierarchy.ruby_system.L2Cache_Controller.IS.L1_GETS            7      0.00%      0.00% (Unspecified)
board.cache_hierarchy.ruby_system.L2Cache_Controller.IS.Mem_Data         3512      0.00%      0.00% (Unspecified)
board.cache_hierarchy.ruby_system.L2Cache_Controller.IM.L1_GETX            2      0.00%      0.00% (Unspecified)
board.cache_hierarchy.ruby_system.L2Cache_Controller.IM.Mem_Data       501061      0.00%      0.00% (Unspecified)
board.cache_hierarchy.ruby_system.L2Cache_Controller.SS_MB.L1_GETS            2      0.00%      0.00% (Unspecified)
board.cache_hierarchy.ruby_system.L2Cache_Controller.SS_MB.Exclusive_Unblock           12      0.00%      0.00% (Unspecified)
board.cache_hierarchy.ruby_system.L2Cache_Controller.MT_MB.L1_GETS            2      0.00%      0.00% (Unspecified)
board.cache_hierarchy.ruby_system.L2Cache_Controller.MT_MB.L1_GETX            8      0.00%      0.00% (Unspecified)
board.cache_hierarchy.ruby_system.L2Cache_Controller.MT_MB.Exclusive_Unblock       753665      0.00%      0.00% (Unspecified)
board.cache_hierarchy.ruby_system.L2Cache_Controller.MT_IIB.L1_GET_INSTR            1      0.00%      0.00% (Unspecified)
board.cache_hierarchy.ruby_system.L2Cache_Controller.MT_IIB.L1_GETS           16      0.00%      0.00% (Unspecified)
board.cache_hierarchy.ruby_system.L2Cache_Controller.MT_IIB.WB_Data           38      0.00%      0.00% (Unspecified)
board.cache_hierarchy.ruby_system.L2Cache_Controller.MT_IIB.WB_Data_clean           20      0.00%      0.00% (Unspecified)
board.cache_hierarchy.ruby_system.L2Cache_Controller.MT_SB.Unblock           58      0.00%      0.00% (Unspecified)
board.cache_hierarchy.ruby_system.RequestType.LD.latency_hist_seqr::bucket_size          256                       (Unspecified)
board.cache_hierarchy.ruby_system.RequestType.LD.latency_hist_seqr::max_bucket         2559                       (Unspecified)
board.cache_hierarchy.ruby_system.RequestType.LD.latency_hist_seqr::samples     24125659                       (Unspecified)
board.cache_hierarchy.ruby_system.RequestType.LD.latency_hist_seqr::mean     3.697096                       (Unspecified)
board.cache_hierarchy.ruby_system.RequestType.LD.latency_hist_seqr::gmean     1.059071                       (Unspecified)
board.cache_hierarchy.ruby_system.RequestType.LD.latency_hist_seqr::stdev    29.317797                       (Unspecified)
board.cache_hierarchy.ruby_system.RequestType.LD.latency_hist_seqr |    24092062     99.86%     99.86% |       20176      0.08%     99.94% |        9869      0.04%     99.99% |        2787      0.01%    100.00% |         456      0.00%    100.00% |         306      0.00%    100.00% |           3      0.00%    100.00% |           0      0.00%    100.00% |           0      0.00%    100.00% |           0      0.00%    100.00% (Unspecified)
board.cache_hierarchy.ruby_system.RequestType.LD.latency_hist_seqr::total     24125659                       (Unspecified)
board.cache_hierarchy.ruby_system.RequestType.LD.hit_latency_hist_seqr::bucket_size            1                       (Unspecified)
board.cache_hierarchy.ruby_system.RequestType.LD.hit_latency_hist_seqr::max_bucket            9                       (Unspecified)
board.cache_hierarchy.ruby_system.RequestType.LD.hit_latency_hist_seqr::samples     23873006                       (Unspecified)
board.cache_hierarchy.ruby_system.RequestType.LD.hit_latency_hist_seqr::mean            1                       (Unspecified)
board.cache_hierarchy.ruby_system.RequestType.LD.hit_latency_hist_seqr::gmean            1                       (Unspecified)
board.cache_hierarchy.ruby_system.RequestType.LD.hit_latency_hist_seqr |           0      0.00%      0.00% |    23873006    100.00%    100.00% |           0      0.00%    100.00% |           0      0.00%    100.00% |           0      0.00%    100.00% |           0      0.00%    100.00% |           0      0.00%    100.00% |           0      0.00%    100.00% |           0      0.00%    100.00% |           0      0.00%    100.00% (Unspecified)
board.cache_hierarchy.ruby_system.RequestType.LD.hit_latency_hist_seqr::total     23873006                       (Unspecified)
board.cache_hierarchy.ruby_system.RequestType.LD.miss_latency_hist_seqr::bucket_size          256                       (Unspecified)
board.cache_hierarchy.ruby_system.RequestType.LD.miss_latency_hist_seqr::max_bucket         2559                       (Unspecified)
board.cache_hierarchy.ruby_system.RequestType.LD.miss_latency_hist_seqr::samples       252653                       (Unspecified)
board.cache_hierarchy.ruby_system.RequestType.LD.miss_latency_hist_seqr::mean   258.543801                       (Unspecified)
board.cache_hierarchy.ruby_system.RequestType.LD.miss_latency_hist_seqr::gmean   239.936874                       (Unspecified)
board.cache_hierarchy.ruby_system.RequestType.LD.miss_latency_hist_seqr::stdev   128.226758                       (Unspecified)
board.cache_hierarchy.ruby_system.RequestType.LD.miss_latency_hist_seqr |      219056     86.70%     86.70% |       20176      7.99%     94.69% |        9869      3.91%     98.59% |        2787      1.10%     99.70% |         456      0.18%     99.88% |         306      0.12%    100.00% |           3      0.00%    100.00% |           0      0.00%    100.00% |           0      0.00%    100.00% |           0      0.00%    100.00% (Unspecified)
board.cache_hierarchy.ruby_system.RequestType.LD.miss_latency_hist_seqr::total       252653                       (Unspecified)
board.cache_hierarchy.ruby_system.RequestType.ST.latency_hist_seqr::bucket_size          256                       (Unspecified)
board.cache_hierarchy.ruby_system.RequestType.ST.latency_hist_seqr::max_bucket         2559                       (Unspecified)
board.cache_hierarchy.ruby_system.RequestType.ST.latency_hist_seqr::samples      7523516                       (Unspecified)
board.cache_hierarchy.ruby_system.RequestType.ST.latency_hist_seqr::mean    14.199459                       (Unspecified)
board.cache_hierarchy.ruby_system.RequestType.ST.latency_hist_seqr::gmean     1.413954                       (Unspecified)
board.cache_hierarchy.ruby_system.RequestType.ST.latency_hist_seqr::stdev    58.727660                       (Unspecified)
board.cache_hierarchy.ruby_system.RequestType.ST.latency_hist_seqr |     7490538     99.56%     99.56% |        4317      0.06%     99.62% |       23146      0.31%     99.93% |        5276      0.07%    100.00% |         126      0.00%    100.00% |          86      0.00%    100.00% |          27      0.00%    100.00% |           0      0.00%    100.00% |           0      0.00%    100.00% |           0      0.00%    100.00% (Unspecified)
board.cache_hierarchy.ruby_system.RequestType.ST.latency_hist_seqr::total      7523516                       (Unspecified)
board.cache_hierarchy.ruby_system.RequestType.ST.hit_latency_hist_seqr::bucket_size            1                       (Unspecified)
board.cache_hierarchy.ruby_system.RequestType.ST.hit_latency_hist_seqr::max_bucket            9                       (Unspecified)
board.cache_hierarchy.ruby_system.RequestType.ST.hit_latency_hist_seqr::samples      7022801                       (Unspecified)
board.cache_hierarchy.ruby_system.RequestType.ST.hit_latency_hist_seqr::mean     1.000005                       (Unspecified)
board.cache_hierarchy.ruby_system.RequestType.ST.hit_latency_hist_seqr::gmean     1.000004                       (Unspecified)
board.cache_hierarchy.ruby_system.RequestType.ST.hit_latency_hist_seqr::stdev     0.002295                       (Unspecified)
board.cache_hierarchy.ruby_system.RequestType.ST.hit_latency_hist_seqr |           0      0.00%      0.00% |     7022764    100.00%    100.00% |          37      0.00%    100.00% |           0      0.00%    100.00% |           0      0.00%    100.00% |           0      0.00%    100.00% |           0      0.00%    100.00% |           0      0.00%    100.00% |           0      0.00%    100.00% |           0      0.00%    100.00% (Unspecified)
board.cache_hierarchy.ruby_system.RequestType.ST.hit_latency_hist_seqr::total      7022801                       (Unspecified)
board.cache_hierarchy.ruby_system.RequestType.ST.miss_latency_hist_seqr::bucket_size          256                       (Unspecified)
board.cache_hierarchy.ruby_system.RequestType.ST.miss_latency_hist_seqr::max_bucket         2559                       (Unspecified)
board.cache_hierarchy.ruby_system.RequestType.ST.miss_latency_hist_seqr::samples       500715                       (Unspecified)
board.cache_hierarchy.ruby_system.RequestType.ST.miss_latency_hist_seqr::mean   199.328994                       (Unspecified)
board.cache_hierarchy.ruby_system.RequestType.ST.miss_latency_hist_seqr::gmean   182.117181                       (Unspecified)
board.cache_hierarchy.ruby_system.RequestType.ST.miss_latency_hist_seqr::stdev   122.905023                       (Unspecified)
board.cache_hierarchy.ruby_system.RequestType.ST.miss_latency_hist_seqr |      467737     93.41%     93.41% |        4317      0.86%     94.28% |       23146      4.62%     98.90% |        5276      1.05%     99.95% |         126      0.03%     99.98% |          86      0.02%     99.99% |          27      0.01%    100.00% |           0      0.00%    100.00% |           0      0.00%    100.00% |           0      0.00%    100.00% (Unspecified)
board.cache_hierarchy.ruby_system.RequestType.ST.miss_latency_hist_seqr::total       500715                       (Unspecified)
board.cache_hierarchy.ruby_system.RequestType.IFETCH.latency_hist_seqr::bucket_size          256                       (Unspecified)
board.cache_hierarchy.ruby_system.RequestType.IFETCH.latency_hist_seqr::max_bucket         2559                       (Unspecified)
board.cache_hierarchy.ruby_system.RequestType.IFETCH.latency_hist_seqr::samples     13156170                       (Unspecified)
board.cache_hierarchy.ruby_system.RequestType.IFETCH.latency_hist_seqr::mean     1.064832                       (Unspecified)
board.cache_hierarchy.ruby_system.RequestType.IFETCH.latency_hist_seqr::gmean     1.001911                       (Unspecified)
board.cache_hierarchy.ruby_system.RequestType.IFETCH.latency_hist_seqr::stdev     3.956257                       (Unspecified)
board.cache_hierarchy.ruby_system.RequestType.IFETCH.latency_hist_seqr |    13155740    100.00%    100.00% |         362      0.00%    100.00% |          30      0.00%    100.00% |          28      0.00%    100.00% |           8      0.00%    100.00% |           2      0.00%    100.00% |           0      0.00%    100.00% |           0      0.00%    100.00% |           0      0.00%    100.00% |           0      0.00%    100.00% (Unspecified)
board.cache_hierarchy.ruby_system.RequestType.IFETCH.latency_hist_seqr::total     13156170                       (Unspecified)
board.cache_hierarchy.ruby_system.RequestType.IFETCH.hit_latency_hist_seqr::bucket_size            1                       (Unspecified)
board.cache_hierarchy.ruby_system.RequestType.IFETCH.hit_latency_hist_seqr::max_bucket            9                       (Unspecified)
board.cache_hierarchy.ruby_system.RequestType.IFETCH.hit_latency_hist_seqr::samples     13150974                       (Unspecified)
board.cache_hierarchy.ruby_system.RequestType.IFETCH.hit_latency_hist_seqr::mean            1                       (Unspecified)
board.cache_hierarchy.ruby_system.RequestType.IFETCH.hit_latency_hist_seqr::gmean            1                       (Unspecified)
board.cache_hierarchy.ruby_system.RequestType.IFETCH.hit_latency_hist_seqr |           0      0.00%      0.00% |    13150974    100.00%    100.00% |           0      0.00%    100.00% |           0      0.00%    100.00% |           0      0.00%    100.00% |           0      0.00%    100.00% |           0      0.00%    100.00% |           0      0.00%    100.00% |           0      0.00%    100.00% |           0      0.00%    100.00% (Unspecified)
board.cache_hierarchy.ruby_system.RequestType.IFETCH.hit_latency_hist_seqr::total     13150974                       (Unspecified)
board.cache_hierarchy.ruby_system.RequestType.IFETCH.miss_latency_hist_seqr::bucket_size          256                       (Unspecified)
board.cache_hierarchy.ruby_system.RequestType.IFETCH.miss_latency_hist_seqr::max_bucket         2559                       (Unspecified)
board.cache_hierarchy.ruby_system.RequestType.IFETCH.miss_latency_hist_seqr::samples         5196                       (Unspecified)
board.cache_hierarchy.ruby_system.RequestType.IFETCH.miss_latency_hist_seqr::mean   165.154349                       (Unspecified)
board.cache_hierarchy.ruby_system.RequestType.IFETCH.miss_latency_hist_seqr::gmean   125.852590                       (Unspecified)
board.cache_hierarchy.ruby_system.RequestType.IFETCH.miss_latency_hist_seqr::stdev   112.680551                       (Unspecified)
board.cache_hierarchy.ruby_system.RequestType.IFETCH.miss_latency_hist_seqr |        4766     91.72%     91.72% |         362      6.97%     98.69% |          30      0.58%     99.27% |          28      0.54%     99.81% |           8      0.15%     99.96% |           2      0.04%    100.00% |           0      0.00%    100.00% |           0      0.00%    100.00% |           0      0.00%    100.00% |           0      0.00%    100.00% (Unspecified)
board.cache_hierarchy.ruby_system.RequestType.IFETCH.miss_latency_hist_seqr::total         5196                       (Unspecified)
board.cache_hierarchy.ruby_system.RequestType.RMW_Read.latency_hist_seqr::bucket_size          128                       (Unspecified)
board.cache_hierarchy.ruby_system.RequestType.RMW_Read.latency_hist_seqr::max_bucket         1279                       (Unspecified)
board.cache_hierarchy.ruby_system.RequestType.RMW_Read.latency_hist_seqr::samples      4002201                       (Unspecified)
board.cache_hierarchy.ruby_system.RequestType.RMW_Read.latency_hist_seqr::mean     1.013812                       (Unspecified)
board.cache_hierarchy.ruby_system.RequestType.RMW_Read.latency_hist_seqr::gmean     1.000483                       (Unspecified)
board.cache_hierarchy.ruby_system.RequestType.RMW_Read.latency_hist_seqr::stdev     1.679983                       (Unspecified)
board.cache_hierarchy.ruby_system.RequestType.RMW_Read.latency_hist_seqr |     4001949     99.99%     99.99% |         243      0.01%    100.00% |           1      0.00%    100.00% |           3      0.00%    100.00% |           1      0.00%    100.00% |           1      0.00%    100.00% |           1      0.00%    100.00% |           2      0.00%    100.00% |           0      0.00%    100.00% |           0      0.00%    100.00% (Unspecified)
board.cache_hierarchy.ruby_system.RequestType.RMW_Read.latency_hist_seqr::total      4002201                       (Unspecified)
board.cache_hierarchy.ruby_system.RequestType.RMW_Read.hit_latency_hist_seqr::bucket_size            1                       (Unspecified)
board.cache_hierarchy.ruby_system.RequestType.RMW_Read.hit_latency_hist_seqr::max_bucket            9                       (Unspecified)
board.cache_hierarchy.ruby_system.RequestType.RMW_Read.hit_latency_hist_seqr::samples      4001798                       (Unspecified)
board.cache_hierarchy.ruby_system.RequestType.RMW_Read.hit_latency_hist_seqr::mean            1                       (Unspecified)
board.cache_hierarchy.ruby_system.RequestType.RMW_Read.hit_latency_hist_seqr::gmean            1                       (Unspecified)
board.cache_hierarchy.ruby_system.RequestType.RMW_Read.hit_latency_hist_seqr |           0      0.00%      0.00% |     4001798    100.00%    100.00% |           0      0.00%    100.00% |           0      0.00%    100.00% |           0      0.00%    100.00% |           0      0.00%    100.00% |           0      0.00%    100.00% |           0      0.00%    100.00% |           0      0.00%    100.00% |           0      0.00%    100.00% (Unspecified)
board.cache_hierarchy.ruby_system.RequestType.RMW_Read.hit_latency_hist_seqr::total      4001798                       (Unspecified)
board.cache_hierarchy.ruby_system.RequestType.RMW_Read.miss_latency_hist_seqr::bucket_size          128                       (Unspecified)
board.cache_hierarchy.ruby_system.RequestType.RMW_Read.miss_latency_hist_seqr::max_bucket         1279                       (Unspecified)
board.cache_hierarchy.ruby_system.RequestType.RMW_Read.miss_latency_hist_seqr::samples          403                       (Unspecified)
board.cache_hierarchy.ruby_system.RequestType.RMW_Read.miss_latency_hist_seqr::mean   138.166253                       (Unspecified)
board.cache_hierarchy.ruby_system.RequestType.RMW_Read.miss_latency_hist_seqr::gmean   121.010760                       (Unspecified)
board.cache_hierarchy.ruby_system.RequestType.RMW_Read.miss_latency_hist_seqr::stdev    96.119586                       (Unspecified)
board.cache_hierarchy.ruby_system.RequestType.RMW_Read.miss_latency_hist_seqr |         151     37.47%     37.47% |         243     60.30%     97.77% |           1      0.25%     98.01% |           3      0.74%     98.76% |           1      0.25%     99.01% |           1      0.25%     99.26% |           1      0.25%     99.50% |           2      0.50%    100.00% |           0      0.00%    100.00% |           0      0.00%    100.00% (Unspecified)
board.cache_hierarchy.ruby_system.RequestType.RMW_Read.miss_latency_hist_seqr::total          403                       (Unspecified)
board.cache_hierarchy.ruby_system.RequestType.Locked_RMW_Read.latency_hist_seqr::bucket_size           64                       (Unspecified)
board.cache_hierarchy.ruby_system.RequestType.Locked_RMW_Read.latency_hist_seqr::max_bucket          639                       (Unspecified)
board.cache_hierarchy.ruby_system.RequestType.Locked_RMW_Read.latency_hist_seqr::samples          149                       (Unspecified)
board.cache_hierarchy.ruby_system.RequestType.Locked_RMW_Read.latency_hist_seqr::mean    16.979866                       (Unspecified)
board.cache_hierarchy.ruby_system.RequestType.Locked_RMW_Read.latency_hist_seqr::gmean     1.776864                       (Unspecified)
board.cache_hierarchy.ruby_system.RequestType.Locked_RMW_Read.latency_hist_seqr::stdev    56.319848                       (Unspecified)
board.cache_hierarchy.ruby_system.RequestType.Locked_RMW_Read.latency_hist_seqr |         139     93.29%     93.29% |           0      0.00%     93.29% |           5      3.36%     96.64% |           4      2.68%     99.33% |           0      0.00%     99.33% |           0      0.00%     99.33% |           1      0.67%    100.00% |           0      0.00%    100.00% |           0      0.00%    100.00% |           0      0.00%    100.00% (Unspecified)
board.cache_hierarchy.ruby_system.RequestType.Locked_RMW_Read.latency_hist_seqr::total          149                       (Unspecified)
board.cache_hierarchy.ruby_system.RequestType.Locked_RMW_Read.hit_latency_hist_seqr::bucket_size            1                       (Unspecified)
board.cache_hierarchy.ruby_system.RequestType.Locked_RMW_Read.hit_latency_hist_seqr::max_bucket            9                       (Unspecified)
board.cache_hierarchy.ruby_system.RequestType.Locked_RMW_Read.hit_latency_hist_seqr::samples          129                       (Unspecified)
board.cache_hierarchy.ruby_system.RequestType.Locked_RMW_Read.hit_latency_hist_seqr::mean            1                       (Unspecified)
board.cache_hierarchy.ruby_system.RequestType.Locked_RMW_Read.hit_latency_hist_seqr::gmean            1                       (Unspecified)
board.cache_hierarchy.ruby_system.RequestType.Locked_RMW_Read.hit_latency_hist_seqr |           0      0.00%      0.00% |         129    100.00%    100.00% |           0      0.00%    100.00% |           0      0.00%    100.00% |           0      0.00%    100.00% |           0      0.00%    100.00% |           0      0.00%    100.00% |           0      0.00%    100.00% |           0      0.00%    100.00% |           0      0.00%    100.00% (Unspecified)
board.cache_hierarchy.ruby_system.RequestType.Locked_RMW_Read.hit_latency_hist_seqr::total          129                       (Unspecified)
board.cache_hierarchy.ruby_system.RequestType.Locked_RMW_Read.miss_latency_hist_seqr::bucket_size           64                       (Unspecified)
board.cache_hierarchy.ruby_system.RequestType.Locked_RMW_Read.miss_latency_hist_seqr::max_bucket          639                       (Unspecified)
board.cache_hierarchy.ruby_system.RequestType.Locked_RMW_Read.miss_latency_hist_seqr::samples           20                       (Unspecified)
board.cache_hierarchy.ruby_system.RequestType.Locked_RMW_Read.miss_latency_hist_seqr::mean   120.050000                       (Unspecified)
board.cache_hierarchy.ruby_system.RequestType.Locked_RMW_Read.miss_latency_hist_seqr::gmean    72.430837                       (Unspecified)
board.cache_hierarchy.ruby_system.RequestType.Locked_RMW_Read.miss_latency_hist_seqr::stdev   108.587813                       (Unspecified)
board.cache_hierarchy.ruby_system.RequestType.Locked_RMW_Read.miss_latency_hist_seqr |          10     50.00%     50.00% |           0      0.00%     50.00% |           5     25.00%     75.00% |           4     20.00%     95.00% |           0      0.00%     95.00% |           0      0.00%     95.00% |           1      5.00%    100.00% |           0      0.00%    100.00% |           0      0.00%    100.00% |           0      0.00%    100.00% (Unspecified)
board.cache_hierarchy.ruby_system.RequestType.Locked_RMW_Read.miss_latency_hist_seqr::total           20                       (Unspecified)
board.cache_hierarchy.ruby_system.RequestType.Locked_RMW_Write.latency_hist_seqr::bucket_size            1                       (Unspecified)
board.cache_hierarchy.ruby_system.RequestType.Locked_RMW_Write.latency_hist_seqr::max_bucket            9                       (Unspecified)
board.cache_hierarchy.ruby_system.RequestType.Locked_RMW_Write.latency_hist_seqr::samples          149                       (Unspecified)
board.cache_hierarchy.ruby_system.RequestType.Locked_RMW_Write.latency_hist_seqr::mean            1                       (Unspecified)
board.cache_hierarchy.ruby_system.RequestType.Locked_RMW_Write.latency_hist_seqr::gmean            1                       (Unspecified)
board.cache_hierarchy.ruby_system.RequestType.Locked_RMW_Write.latency_hist_seqr |           0      0.00%      0.00% |         149    100.00%    100.00% |           0      0.00%    100.00% |           0      0.00%    100.00% |           0      0.00%    100.00% |           0      0.00%    100.00% |           0      0.00%    100.00% |           0      0.00%    100.00% |           0      0.00%    100.00% |           0      0.00%    100.00% (Unspecified)
board.cache_hierarchy.ruby_system.RequestType.Locked_RMW_Write.latency_hist_seqr::total          149                       (Unspecified)
board.cache_hierarchy.ruby_system.RequestType.Locked_RMW_Write.hit_latency_hist_seqr::bucket_size            1                       (Unspecified)
board.cache_hierarchy.ruby_system.RequestType.Locked_RMW_Write.hit_latency_hist_seqr::max_bucket            9                       (Unspecified)
board.cache_hierarchy.ruby_system.RequestType.Locked_RMW_Write.hit_latency_hist_seqr::samples          149                       (Unspecified)
board.cache_hierarchy.ruby_system.RequestType.Locked_RMW_Write.hit_latency_hist_seqr::mean            1                       (Unspecified)
board.cache_hierarchy.ruby_system.RequestType.Locked_RMW_Write.hit_latency_hist_seqr::gmean            1                       (Unspecified)
board.cache_hierarchy.ruby_system.RequestType.Locked_RMW_Write.hit_latency_hist_seqr |           0      0.00%      0.00% |         149    100.00%    100.00% |           0      0.00%    100.00% |           0      0.00%    100.00% |           0      0.00%    100.00% |           0      0.00%    100.00% |           0      0.00%    100.00% |           0      0.00%    100.00% |           0      0.00%    100.00% |           0      0.00%    100.00% (Unspecified)
board.cache_hierarchy.ruby_system.RequestType.Locked_RMW_Write.hit_latency_hist_seqr::total          149                       (Unspecified)
board.cache_hierarchy.ruby_system.directory_controllers.power_state.pwrStateResidencyTicks::UNDEFINED  58686944976                       # Cumulative time (in ticks) in various power states (Tick)
board.cache_hierarchy.ruby_system.directory_controllers.requestToDir.m_msg_count       756743                       # Number of messages passed the buffer (Count)
board.cache_hierarchy.ruby_system.directory_controllers.requestToDir.m_buf_msgs     0.004294                       # Average number of messages in buffer ((Count/Tick))
board.cache_hierarchy.ruby_system.directory_controllers.requestToMemory.m_msg_count      1256439                       # Number of messages passed the buffer (Count)
board.cache_hierarchy.ruby_system.directory_controllers.requestToMemory.m_buf_msgs     0.007133                       # Average number of messages in buffer ((Count/Tick))
board.cache_hierarchy.ruby_system.directory_controllers.requestToMemory.m_stall_time       193140                       # Total number of ticks messages were stalled in this buffer (Tick)
board.cache_hierarchy.ruby_system.directory_controllers.requestToMemory.m_avg_stall_time     0.153720                       # Average stall ticks per message ((Tick/Count))
board.cache_hierarchy.ruby_system.directory_controllers.responseFromDir.m_msg_count      1509390                       # Number of messages passed the buffer (Count)
board.cache_hierarchy.ruby_system.directory_controllers.responseFromDir.m_buf_msgs     0.008565                       # Average number of messages in buffer ((Count/Tick))
board.cache_hierarchy.ruby_system.directory_controllers.responseFromMemory.m_msg_count      1256439                       # Number of messages passed the buffer (Count)
board.cache_hierarchy.ruby_system.directory_controllers.responseFromMemory.m_buf_msgs     0.011767                       # Average number of messages in buffer ((Count/Tick))
board.cache_hierarchy.ruby_system.directory_controllers.responseToDir.m_msg_count       752647                       # Number of messages passed the buffer (Count)
board.cache_hierarchy.ruby_system.directory_controllers.responseToDir.m_buf_msgs     0.004271                       # Average number of messages in buffer ((Count/Tick))
board.cache_hierarchy.ruby_system.l1_controllers0.fullyBusyCycles           45                       # cycles for which number of transistions == max transitions (Unspecified)
board.cache_hierarchy.ruby_system.l1_controllers0.delayHistogram::samples       949424                       # delay_histogram (Unspecified)
board.cache_hierarchy.ruby_system.l1_controllers0.delayHistogram::mean     0.007588                       # delay_histogram (Unspecified)
board.cache_hierarchy.ruby_system.l1_controllers0.delayHistogram::stdev     0.190219                       # delay_histogram (Unspecified)
board.cache_hierarchy.ruby_system.l1_controllers0.delayHistogram::0-1       947234     99.77%     99.77% # delay_histogram (Unspecified)
board.cache_hierarchy.ruby_system.l1_controllers0.delayHistogram::2-3         1514      0.16%     99.93% # delay_histogram (Unspecified)
board.cache_hierarchy.ruby_system.l1_controllers0.delayHistogram::4-5          209      0.02%     99.95% # delay_histogram (Unspecified)
board.cache_hierarchy.ruby_system.l1_controllers0.delayHistogram::6-7          248      0.03%     99.98% # delay_histogram (Unspecified)
board.cache_hierarchy.ruby_system.l1_controllers0.delayHistogram::8-9          185      0.02%    100.00% # delay_histogram (Unspecified)
board.cache_hierarchy.ruby_system.l1_controllers0.delayHistogram::10-11           28      0.00%    100.00% # delay_histogram (Unspecified)
board.cache_hierarchy.ruby_system.l1_controllers0.delayHistogram::12-13            1      0.00%    100.00% # delay_histogram (Unspecified)
board.cache_hierarchy.ruby_system.l1_controllers0.delayHistogram::14-15            2      0.00%    100.00% # delay_histogram (Unspecified)
board.cache_hierarchy.ruby_system.l1_controllers0.delayHistogram::16-17            1      0.00%    100.00% # delay_histogram (Unspecified)
board.cache_hierarchy.ruby_system.l1_controllers0.delayHistogram::18-19            2      0.00%    100.00% # delay_histogram (Unspecified)
board.cache_hierarchy.ruby_system.l1_controllers0.delayHistogram::total       949424                       # delay_histogram (Unspecified)
board.cache_hierarchy.ruby_system.l1_controllers0.L1Dcache.m_demand_hits     26202023                       # Number of cache demand hits (Unspecified)
board.cache_hierarchy.ruby_system.l1_controllers0.L1Dcache.m_demand_misses       471763                       # Number of cache demand misses (Unspecified)
board.cache_hierarchy.ruby_system.l1_controllers0.L1Dcache.m_demand_accesses     26673786                       # Number of cache demand accesses (Unspecified)
board.cache_hierarchy.ruby_system.l1_controllers0.L1Icache.m_demand_hits     10079501                       # Number of cache demand hits (Unspecified)
board.cache_hierarchy.ruby_system.l1_controllers0.L1Icache.m_demand_misses         3586                       # Number of cache demand misses (Unspecified)
board.cache_hierarchy.ruby_system.l1_controllers0.L1Icache.m_demand_accesses     10083087                       # Number of cache demand accesses (Unspecified)
board.cache_hierarchy.ruby_system.l1_controllers0.mandatoryQueue.m_msg_count     36756873                       # Number of messages passed the buffer (Count)
board.cache_hierarchy.ruby_system.l1_controllers0.mandatoryQueue.m_buf_msgs     0.208565                       # Average number of messages in buffer ((Count/Tick))
board.cache_hierarchy.ruby_system.l1_controllers0.mandatoryQueue.m_stall_time          333                       # Total number of ticks messages were stalled in this buffer (Tick)
board.cache_hierarchy.ruby_system.l1_controllers0.mandatoryQueue.m_avg_stall_time     0.000009                       # Average stall ticks per message ((Tick/Count))
board.cache_hierarchy.ruby_system.l1_controllers0.power_state.pwrStateResidencyTicks::UNDEFINED  58686944976                       # Cumulative time (in ticks) in various power states (Tick)
board.cache_hierarchy.ruby_system.l1_controllers0.prefetcher.RubyPrefetcher.numMissObserved            0                       # Number of misses observed (Unspecified)
board.cache_hierarchy.ruby_system.l1_controllers0.prefetcher.RubyPrefetcher.numAllocatedStreams            0                       # Number of streams allocated for prefetching (Unspecified)
board.cache_hierarchy.ruby_system.l1_controllers0.prefetcher.RubyPrefetcher.numPrefetchRequested            0                       # Number of prefetch requests made (Unspecified)
board.cache_hierarchy.ruby_system.l1_controllers0.prefetcher.RubyPrefetcher.numHits            0                       # Number of prefetched blocks accessed (for the first time) (Unspecified)
board.cache_hierarchy.ruby_system.l1_controllers0.prefetcher.RubyPrefetcher.numPartialHits            0                       # Number of misses observed for a block being prefetched (Unspecified)
board.cache_hierarchy.ruby_system.l1_controllers0.prefetcher.RubyPrefetcher.numPagesCrossed            0                       # Number of prefetches across pages (Unspecified)
board.cache_hierarchy.ruby_system.l1_controllers0.prefetcher.RubyPrefetcher.numMissedPrefetchedBlocks            0                       # Number of misses for blocks that were prefetched, yet missed (Unspecified)
board.cache_hierarchy.ruby_system.l1_controllers0.requestFromL1Cache.m_msg_count       915951                       # Number of messages passed the buffer (Count)
board.cache_hierarchy.ruby_system.l1_controllers0.requestFromL1Cache.m_buf_msgs     0.010395                       # Average number of messages in buffer ((Count/Tick))
board.cache_hierarchy.ruby_system.l1_controllers0.requestToL1Cache.m_msg_count        33468                       # Number of messages passed the buffer (Count)
board.cache_hierarchy.ruby_system.l1_controllers0.requestToL1Cache.m_buf_msgs     0.000190                       # Average number of messages in buffer ((Count/Tick))
board.cache_hierarchy.ruby_system.l1_controllers0.responseFromL1Cache.m_msg_count        33508                       # Number of messages passed the buffer (Count)
board.cache_hierarchy.ruby_system.l1_controllers0.responseFromL1Cache.m_buf_msgs     0.000380                       # Average number of messages in buffer ((Count/Tick))
board.cache_hierarchy.ruby_system.l1_controllers0.responseToL1Cache.m_msg_count       915956                       # Number of messages passed the buffer (Count)
board.cache_hierarchy.ruby_system.l1_controllers0.responseToL1Cache.m_buf_msgs     0.005197                       # Average number of messages in buffer ((Count/Tick))
board.cache_hierarchy.ruby_system.l1_controllers0.sequencer.power_state.pwrStateResidencyTicks::UNDEFINED  58686944976                       # Cumulative time (in ticks) in various power states (Tick)
board.cache_hierarchy.ruby_system.l1_controllers0.unblockFromL1Cache.m_msg_count       471755                       # Number of messages passed the buffer (Count)
board.cache_hierarchy.ruby_system.l1_controllers0.unblockFromL1Cache.m_buf_msgs     0.002677                       # Average number of messages in buffer ((Count/Tick))
board.cache_hierarchy.ruby_system.l1_controllers1.fullyBusyCycles           51                       # cycles for which number of transistions == max transitions (Unspecified)
board.cache_hierarchy.ruby_system.l1_controllers1.delayHistogram::samples       188717                       # delay_histogram (Unspecified)
board.cache_hierarchy.ruby_system.l1_controllers1.delayHistogram::mean     0.035302                       # delay_histogram (Unspecified)
board.cache_hierarchy.ruby_system.l1_controllers1.delayHistogram::stdev     0.411687                       # delay_histogram (Unspecified)
board.cache_hierarchy.ruby_system.l1_controllers1.delayHistogram::0-3       188053     99.65%     99.65% # delay_histogram (Unspecified)
board.cache_hierarchy.ruby_system.l1_controllers1.delayHistogram::4-7          461      0.24%     99.89% # delay_histogram (Unspecified)
board.cache_hierarchy.ruby_system.l1_controllers1.delayHistogram::8-11          201      0.11%    100.00% # delay_histogram (Unspecified)
board.cache_hierarchy.ruby_system.l1_controllers1.delayHistogram::16-19            1      0.00%    100.00% # delay_histogram (Unspecified)
board.cache_hierarchy.ruby_system.l1_controllers1.delayHistogram::20-23            1      0.00%    100.00% # delay_histogram (Unspecified)
board.cache_hierarchy.ruby_system.l1_controllers1.delayHistogram::total       188717                       # delay_histogram (Unspecified)
board.cache_hierarchy.ruby_system.l1_controllers1.L1Dcache.m_demand_hits      2899145                       # Number of cache demand hits (Unspecified)
board.cache_hierarchy.ruby_system.l1_controllers1.L1Dcache.m_demand_misses        94009                       # Number of cache demand misses (Unspecified)
board.cache_hierarchy.ruby_system.l1_controllers1.L1Dcache.m_demand_accesses      2993154                       # Number of cache demand accesses (Unspecified)
board.cache_hierarchy.ruby_system.l1_controllers1.L1Icache.m_demand_hits      1024592                       # Number of cache demand hits (Unspecified)
board.cache_hierarchy.ruby_system.l1_controllers1.L1Icache.m_demand_misses          535                       # Number of cache demand misses (Unspecified)
board.cache_hierarchy.ruby_system.l1_controllers1.L1Icache.m_demand_accesses      1025127                       # Number of cache demand accesses (Unspecified)
board.cache_hierarchy.ruby_system.l1_controllers1.mandatoryQueue.m_msg_count      4018281                       # Number of messages passed the buffer (Count)
board.cache_hierarchy.ruby_system.l1_controllers1.mandatoryQueue.m_buf_msgs     0.022800                       # Average number of messages in buffer ((Count/Tick))
board.cache_hierarchy.ruby_system.l1_controllers1.power_state.pwrStateResidencyTicks::UNDEFINED  58686944976                       # Cumulative time (in ticks) in various power states (Tick)
board.cache_hierarchy.ruby_system.l1_controllers1.prefetcher.RubyPrefetcher.numMissObserved            0                       # Number of misses observed (Unspecified)
board.cache_hierarchy.ruby_system.l1_controllers1.prefetcher.RubyPrefetcher.numAllocatedStreams            0                       # Number of streams allocated for prefetching (Unspecified)
board.cache_hierarchy.ruby_system.l1_controllers1.prefetcher.RubyPrefetcher.numPrefetchRequested            0                       # Number of prefetch requests made (Unspecified)
board.cache_hierarchy.ruby_system.l1_controllers1.prefetcher.RubyPrefetcher.numHits            0                       # Number of prefetched blocks accessed (for the first time) (Unspecified)
board.cache_hierarchy.ruby_system.l1_controllers1.prefetcher.RubyPrefetcher.numPartialHits            0                       # Number of misses observed for a block being prefetched (Unspecified)
board.cache_hierarchy.ruby_system.l1_controllers1.prefetcher.RubyPrefetcher.numPagesCrossed            0                       # Number of prefetches across pages (Unspecified)
board.cache_hierarchy.ruby_system.l1_controllers1.prefetcher.RubyPrefetcher.numMissedPrefetchedBlocks            0                       # Number of misses for blocks that were prefetched, yet missed (Unspecified)
board.cache_hierarchy.ruby_system.l1_controllers1.requestFromL1Cache.m_msg_count       157752                       # Number of messages passed the buffer (Count)
board.cache_hierarchy.ruby_system.l1_controllers1.requestFromL1Cache.m_buf_msgs     0.001790                       # Average number of messages in buffer ((Count/Tick))
board.cache_hierarchy.ruby_system.l1_controllers1.requestToL1Cache.m_msg_count        30963                       # Number of messages passed the buffer (Count)
board.cache_hierarchy.ruby_system.l1_controllers1.requestToL1Cache.m_buf_msgs     0.000176                       # Average number of messages in buffer ((Count/Tick))
board.cache_hierarchy.ruby_system.l1_controllers1.responseFromL1Cache.m_msg_count        30975                       # Number of messages passed the buffer (Count)
board.cache_hierarchy.ruby_system.l1_controllers1.responseFromL1Cache.m_buf_msgs     0.000352                       # Average number of messages in buffer ((Count/Tick))
board.cache_hierarchy.ruby_system.l1_controllers1.responseToL1Cache.m_msg_count       157754                       # Number of messages passed the buffer (Count)
board.cache_hierarchy.ruby_system.l1_controllers1.responseToL1Cache.m_buf_msgs     0.000895                       # Average number of messages in buffer ((Count/Tick))
board.cache_hierarchy.ruby_system.l1_controllers1.sequencer.power_state.pwrStateResidencyTicks::UNDEFINED  58686944976                       # Cumulative time (in ticks) in various power states (Tick)
board.cache_hierarchy.ruby_system.l1_controllers1.unblockFromL1Cache.m_msg_count        94003                       # Number of messages passed the buffer (Count)
board.cache_hierarchy.ruby_system.l1_controllers1.unblockFromL1Cache.m_buf_msgs     0.000533                       # Average number of messages in buffer ((Count/Tick))
board.cache_hierarchy.ruby_system.l1_controllers2.fullyBusyCycles           62                       # cycles for which number of transistions == max transitions (Unspecified)
board.cache_hierarchy.ruby_system.l1_controllers2.delayHistogram::samples       188662                       # delay_histogram (Unspecified)
board.cache_hierarchy.ruby_system.l1_controllers2.delayHistogram::mean     0.036001                       # delay_histogram (Unspecified)
board.cache_hierarchy.ruby_system.l1_controllers2.delayHistogram::stdev     0.409958                       # delay_histogram (Unspecified)
board.cache_hierarchy.ruby_system.l1_controllers2.delayHistogram::0-3       188012     99.66%     99.66% # delay_histogram (Unspecified)
board.cache_hierarchy.ruby_system.l1_controllers2.delayHistogram::4-7          458      0.24%     99.90% # delay_histogram (Unspecified)
board.cache_hierarchy.ruby_system.l1_controllers2.delayHistogram::8-11          187      0.10%    100.00% # delay_histogram (Unspecified)
board.cache_hierarchy.ruby_system.l1_controllers2.delayHistogram::12-15            2      0.00%    100.00% # delay_histogram (Unspecified)
board.cache_hierarchy.ruby_system.l1_controllers2.delayHistogram::16-19            3      0.00%    100.00% # delay_histogram (Unspecified)
board.cache_hierarchy.ruby_system.l1_controllers2.delayHistogram::total       188662                       # delay_histogram (Unspecified)
board.cache_hierarchy.ruby_system.l1_controllers2.L1Dcache.m_demand_hits      2897301                       # Number of cache demand hits (Unspecified)
board.cache_hierarchy.ruby_system.l1_controllers2.L1Dcache.m_demand_misses        94012                       # Number of cache demand misses (Unspecified)
board.cache_hierarchy.ruby_system.l1_controllers2.L1Dcache.m_demand_accesses      2991313                       # Number of cache demand accesses (Unspecified)
board.cache_hierarchy.ruby_system.l1_controllers2.L1Icache.m_demand_hits      1021834                       # Number of cache demand hits (Unspecified)
board.cache_hierarchy.ruby_system.l1_controllers2.L1Icache.m_demand_misses          538                       # Number of cache demand misses (Unspecified)
board.cache_hierarchy.ruby_system.l1_controllers2.L1Icache.m_demand_accesses      1022372                       # Number of cache demand accesses (Unspecified)
board.cache_hierarchy.ruby_system.l1_controllers2.mandatoryQueue.m_msg_count      4013685                       # Number of messages passed the buffer (Count)
board.cache_hierarchy.ruby_system.l1_controllers2.mandatoryQueue.m_buf_msgs     0.022774                       # Average number of messages in buffer ((Count/Tick))
board.cache_hierarchy.ruby_system.l1_controllers2.power_state.pwrStateResidencyTicks::UNDEFINED  58686944976                       # Cumulative time (in ticks) in various power states (Tick)
board.cache_hierarchy.ruby_system.l1_controllers2.prefetcher.RubyPrefetcher.numMissObserved            0                       # Number of misses observed (Unspecified)
board.cache_hierarchy.ruby_system.l1_controllers2.prefetcher.RubyPrefetcher.numAllocatedStreams            0                       # Number of streams allocated for prefetching (Unspecified)
board.cache_hierarchy.ruby_system.l1_controllers2.prefetcher.RubyPrefetcher.numPrefetchRequested            0                       # Number of prefetch requests made (Unspecified)
board.cache_hierarchy.ruby_system.l1_controllers2.prefetcher.RubyPrefetcher.numHits            0                       # Number of prefetched blocks accessed (for the first time) (Unspecified)
board.cache_hierarchy.ruby_system.l1_controllers2.prefetcher.RubyPrefetcher.numPartialHits            0                       # Number of misses observed for a block being prefetched (Unspecified)
board.cache_hierarchy.ruby_system.l1_controllers2.prefetcher.RubyPrefetcher.numPagesCrossed            0                       # Number of prefetches across pages (Unspecified)
board.cache_hierarchy.ruby_system.l1_controllers2.prefetcher.RubyPrefetcher.numMissedPrefetchedBlocks            0                       # Number of misses for blocks that were prefetched, yet missed (Unspecified)
board.cache_hierarchy.ruby_system.l1_controllers2.requestFromL1Cache.m_msg_count       157761                       # Number of messages passed the buffer (Count)
board.cache_hierarchy.ruby_system.l1_controllers2.requestFromL1Cache.m_buf_msgs     0.001790                       # Average number of messages in buffer ((Count/Tick))
board.cache_hierarchy.ruby_system.l1_controllers2.requestToL1Cache.m_msg_count        30896                       # Number of messages passed the buffer (Count)
board.cache_hierarchy.ruby_system.l1_controllers2.requestToL1Cache.m_buf_msgs     0.000175                       # Average number of messages in buffer ((Count/Tick))
board.cache_hierarchy.ruby_system.l1_controllers2.responseFromL1Cache.m_msg_count        30898                       # Number of messages passed the buffer (Count)
board.cache_hierarchy.ruby_system.l1_controllers2.responseFromL1Cache.m_buf_msgs     0.000351                       # Average number of messages in buffer ((Count/Tick))
board.cache_hierarchy.ruby_system.l1_controllers2.responseToL1Cache.m_msg_count       157766                       # Number of messages passed the buffer (Count)
[...]
board.processor.cores3.core.branchPred.ras.squashes            0                       # Number of times the stack operation was squashed due to wrong speculation. (Count)
board.processor.cores3.core.branchPred.ras.used            0                       # Number of times the RAS is the provider (Count)
board.processor.cores3.core.branchPred.ras.correct            0                       # Number of times the RAS is the provider and the prediction is correct (Count)
board.processor.cores3.core.branchPred.ras.incorrect            0                       # Number of times the RAS is the provider and the prediction is wrong (Count)
board.processor.cores3.core.commitStats0.numInsts      5085499                       # Number of instructions committed (thread level) (Count)
board.processor.cores3.core.commitStats0.numOps      7396738                       # Number of ops (including micro ops) committed (thread level) (Count)
board.processor.cores3.core.commitStats0.numInstsNotNOP            0                       # Number of instructions committed excluding NOPs or prefetches (Count)
board.processor.cores3.core.commitStats0.numOpsNotNOP            0                       # Number of Ops (including micro ops) Simulated (Count)
board.processor.cores3.core.commitStats0.cpi     6.304430                       # CPI: cycles per instruction (thread level) ((Cycle/Count))
board.processor.cores3.core.commitStats0.ipc     0.158619                       # IPC: instructions per cycle (thread level) ((Count/Cycle))
board.processor.cores3.core.commitStats0.numMemRefs            0                       # Number of memory references committed (Count)
board.processor.cores3.core.commitStats0.numFpInsts            0                       # Number of float instructions (Count)
board.processor.cores3.core.commitStats0.numIntInsts            0                       # Number of integer instructions (Count)
board.processor.cores3.core.commitStats0.numLoadInsts            0                       # Number of load instructions (Count)
board.processor.cores3.core.commitStats0.numStoreInsts            0                       # Number of store instructions (Count)
board.processor.cores3.core.commitStats0.numVecInsts            0                       # Number of vector instructions (Count)
board.processor.cores3.core.commitStats0.committedInstType::No_OpClass           41      0.00%      0.00% # Class of committed instruction. (Count)
board.processor.cores3.core.commitStats0.committedInstType::IntAlu      3134087     42.37%     42.37% # Class of committed instruction. (Count)
board.processor.cores3.core.commitStats0.committedInstType::IntMult            4      0.00%     42.37% # Class of committed instruction. (Count)
board.processor.cores3.core.commitStats0.committedInstType::IntDiv           22      0.00%     42.37% # Class of committed instruction. (Count)
board.processor.cores3.core.commitStats0.committedInstType::FloatAdd       500004      6.76%     49.13% # Class of committed instruction. (Count)
board.processor.cores3.core.commitStats0.committedInstType::FloatCmp            0      0.00%     49.13% # Class of committed instruction. (Count)
board.processor.cores3.core.commitStats0.committedInstType::FloatCvt            0      0.00%     49.13% # Class of committed instruction. (Count)
board.processor.cores3.core.commitStats0.committedInstType::FloatMult            0      0.00%     49.13% # Class of committed instruction. (Count)
board.processor.cores3.core.commitStats0.committedInstType::FloatMultAcc            0      0.00%     49.13% # Class of committed instruction. (Count)
board.processor.cores3.core.commitStats0.committedInstType::FloatDiv            0      0.00%     49.13% # Class of committed instruction. (Count)
board.processor.cores3.core.commitStats0.committedInstType::FloatMisc            0      0.00%     49.13% # Class of committed instruction. (Count)
board.processor.cores3.core.commitStats0.committedInstType::FloatSqrt            0      0.00%     49.13% # Class of committed instruction. (Count)
board.processor.cores3.core.commitStats0.committedInstType::SimdAdd            0      0.00%     49.13% # Class of committed instruction. (Count)
board.processor.cores3.core.commitStats0.committedInstType::SimdAddAcc            0      0.00%     49.13% # Class of committed instruction. (Count)
board.processor.cores3.core.commitStats0.committedInstType::SimdAlu           16      0.00%     49.13% # Class of committed instruction. (Count)
board.processor.cores3.core.commitStats0.committedInstType::SimdCmp            0      0.00%     49.13% # Class of committed instruction. (Count)
board.processor.cores3.core.commitStats0.committedInstType::SimdCvt           20      0.00%     49.13% # Class of committed instruction. (Count)
board.processor.cores3.core.commitStats0.committedInstType::SimdMisc           25      0.00%     49.13% # Class of committed instruction. (Count)
board.processor.cores3.core.commitStats0.committedInstType::SimdMult            0      0.00%     49.13% # Class of committed instruction. (Count)
board.processor.cores3.core.commitStats0.committedInstType::SimdMultAcc            0      0.00%     49.13% # Class of committed instruction. (Count)
board.processor.cores3.core.commitStats0.committedInstType::SimdMatMultAcc            0      0.00%     49.13% # Class of committed instruction. (Count)
board.processor.cores3.core.commitStats0.committedInstType::SimdShift            0      0.00%     49.13% # Class of committed instruction. (Count)
board.processor.cores3.core.commitStats0.committedInstType::SimdShiftAcc            0      0.00%     49.13% # Class of committed instruction. (Count)
board.processor.cores3.core.commitStats0.committedInstType::SimdDiv            0      0.00%     49.13% # Class of committed instruction. (Count)
board.processor.cores3.core.commitStats0.committedInstType::SimdSqrt            0      0.00%     49.13% # Class of committed instruction. (Count)
board.processor.cores3.core.commitStats0.committedInstType::SimdFloatAdd       250000      3.38%     52.51% # Class of committed instruction. (Count)
board.processor.cores3.core.commitStats0.committedInstType::SimdFloatAlu            0      0.00%     52.51% # Class of committed instruction. (Count)
board.processor.cores3.core.commitStats0.committedInstType::SimdFloatCmp            0      0.00%     52.51% # Class of committed instruction. (Count)
board.processor.cores3.core.commitStats0.committedInstType::SimdFloatCvt            0      0.00%     52.51% # Class of committed instruction. (Count)
board.processor.cores3.core.commitStats0.committedInstType::SimdFloatDiv            0      0.00%     52.51% # Class of committed instruction. (Count)
board.processor.cores3.core.commitStats0.committedInstType::SimdFloatMisc            0      0.00%     52.51% # Class of committed instruction. (Count)
board.processor.cores3.core.commitStats0.committedInstType::SimdFloatMult       250000      3.38%     55.89% # Class of committed instruction. (Count)
board.processor.cores3.core.commitStats0.committedInstType::SimdFloatMultAcc            0      0.00%     55.89% # Class of committed instruction. (Count)
board.processor.cores3.core.commitStats0.committedInstType::SimdFloatMatMultAcc            0      0.00%     55.89% # Class of committed instruction. (Count)
board.processor.cores3.core.commitStats0.committedInstType::SimdFloatSqrt            0      0.00%     55.89% # Class of committed instruction. (Count)
board.processor.cores3.core.commitStats0.committedInstType::SimdReduceAdd            0      0.00%     55.89% # Class of committed instruction. (Count)
board.processor.cores3.core.commitStats0.committedInstType::SimdReduceAlu            0      0.00%     55.89% # Class of committed instruction. (Count)
board.processor.cores3.core.commitStats0.committedInstType::SimdReduceCmp            0      0.00%     55.89% # Class of committed instruction. (Count)
board.processor.cores3.core.commitStats0.committedInstType::SimdFloatReduceAdd            0      0.00%     55.89% # Class of committed instruction. (Count)
board.processor.cores3.core.commitStats0.committedInstType::SimdFloatReduceCmp            0      0.00%     55.89% # Class of committed instruction. (Count)
board.processor.cores3.core.commitStats0.committedInstType::SimdAes            0      0.00%     55.89% # Class of committed instruction. (Count)
board.processor.cores3.core.commitStats0.committedInstType::SimdAesMix            0      0.00%     55.89% # Class of committed instruction. (Count)
board.processor.cores3.core.commitStats0.committedInstType::SimdSha1Hash            0      0.00%     55.89% # Class of committed instruction. (Count)
board.processor.cores3.core.commitStats0.committedInstType::SimdSha1Hash2            0      0.00%     55.89% # Class of committed instruction. (Count)
board.processor.cores3.core.commitStats0.committedInstType::SimdSha256Hash            0      0.00%     55.89% # Class of committed instruction. (Count)
board.processor.cores3.core.commitStats0.committedInstType::SimdSha256Hash2            0      0.00%     55.89% # Class of committed instruction. (Count)
board.processor.cores3.core.commitStats0.committedInstType::SimdShaSigma2            0      0.00%     55.89% # Class of committed instruction. (Count)
board.processor.cores3.core.commitStats0.committedInstType::SimdShaSigma3            0      0.00%     55.89% # Class of committed instruction. (Count)
board.processor.cores3.core.commitStats0.committedInstType::SimdPredAlu            0      0.00%     55.89% # Class of committed instruction. (Count)
board.processor.cores3.core.commitStats0.committedInstType::Matrix            0      0.00%     55.89% # Class of committed instruction. (Count)
board.processor.cores3.core.commitStats0.committedInstType::MatrixMov            0      0.00%     55.89% # Class of committed instruction. (Count)
board.processor.cores3.core.commitStats0.committedInstType::MatrixOP            0      0.00%     55.89% # Class of committed instruction. (Count)
board.processor.cores3.core.commitStats0.committedInstType::MemRead      2012302     27.21%     83.10% # Class of committed instruction. (Count)
board.processor.cores3.core.commitStats0.committedInstType::MemWrite       250173      3.38%     86.48% # Class of committed instruction. (Count)
board.processor.cores3.core.commitStats0.committedInstType::FloatMemRead       750025     10.14%     96.62% # Class of committed instruction. (Count)
board.processor.cores3.core.commitStats0.committedInstType::FloatMemWrite       250019      3.38%    100.00% # Class of committed instruction. (Count)
board.processor.cores3.core.commitStats0.committedInstType::IprAccess            0      0.00%    100.00% # Class of committed instruction. (Count)
board.processor.cores3.core.commitStats0.committedInstType::InstPrefetch            0      0.00%    100.00% # Class of committed instruction. (Count)
board.processor.cores3.core.commitStats0.committedInstType::SimdUnitStrideLoad            0      0.00%    100.00% # Class of committed instruction. (Count)
board.processor.cores3.core.commitStats0.committedInstType::SimdUnitStrideStore            0      0.00%    100.00% # Class of committed instruction. (Count)
board.processor.cores3.core.commitStats0.committedInstType::SimdUnitStrideMaskLoad            0      0.00%    100.00% # Class of committed instruction. (Count)
board.processor.cores3.core.commitStats0.committedInstType::SimdUnitStrideMaskStore            0      0.00%    100.00% # Class of committed instruction. (Count)
board.processor.cores3.core.commitStats0.committedInstType::SimdStridedLoad            0      0.00%    100.00% # Class of committed instruction. (Count)
board.processor.cores3.core.commitStats0.committedInstType::SimdStridedStore            0      0.00%    100.00% # Class of committed instruction. (Count)
board.processor.cores3.core.commitStats0.committedInstType::SimdIndexedLoad            0      0.00%    100.00% # Class of committed instruction. (Count)
board.processor.cores3.core.commitStats0.committedInstType::SimdIndexedStore            0      0.00%    100.00% # Class of committed instruction. (Count)
board.processor.cores3.core.commitStats0.committedInstType::SimdWholeRegisterLoad            0      0.00%    100.00% # Class of committed instruction. (Count)
board.processor.cores3.core.commitStats0.committedInstType::SimdWholeRegisterStore            0      0.00%    100.00% # Class of committed instruction. (Count)
board.processor.cores3.core.commitStats0.committedInstType::SimdUnitStrideFaultOnlyFirstLoad            0      0.00%    100.00% # Class of committed instruction. (Count)
board.processor.cores3.core.commitStats0.committedInstType::SimdUnitStrideSegmentedLoad            0      0.00%    100.00% # Class of committed instruction. (Count)
board.processor.cores3.core.commitStats0.committedInstType::SimdUnitStrideSegmentedStore            0      0.00%    100.00% # Class of committed instruction. (Count)
board.processor.cores3.core.commitStats0.committedInstType::SimdExt            0      0.00%    100.00% # Class of committed instruction. (Count)
board.processor.cores3.core.commitStats0.committedInstType::SimdFloatExt            0      0.00%    100.00% # Class of committed instruction. (Count)
board.processor.cores3.core.commitStats0.committedInstType::SimdConfig            0      0.00%    100.00% # Class of committed instruction. (Count)
board.processor.cores3.core.commitStats0.committedInstType::total      7396738                       # Class of committed instruction. (Count)
board.processor.cores3.core.executeStats0.numInsts            0                       # Number of executed instructions (Count)
board.processor.cores3.core.executeStats0.numNop            0                       # Number of nop insts executed (Count)
board.processor.cores3.core.executeStats0.numBranches            0                       # Number of branches executed (Count)
board.processor.cores3.core.executeStats0.numLoadInsts            0                       # Number of load instructions executed (Count)
board.processor.cores3.core.executeStats0.numStoreInsts            0                       # Number of stores executed (Count)
board.processor.cores3.core.executeStats0.instRate            0                       # Inst execution rate ((Count/Cycle))
board.processor.cores3.core.executeStats0.numFpRegWrites            0                       # Number of times the floating registers were written (Count)
board.processor.cores3.core.executeStats0.numMemRefs            0                       # Number of memory refs (Count)
board.processor.cores3.core.executeStats0.numVecAluAccesses            0                       # Number of vector alu accesses (Count)
board.processor.cores3.core.executeStats0.numDiscardedOps      1048689                       # Number of ops (including micro ops) which were discarded before commit (Count)
board.processor.cores3.core.fetch2.intInstructions            0                       # Number of integer instructions successfully decoded (Count)
board.processor.cores3.core.fetch2.fpInstructions            0                       # Number of floating point instructions successfully decoded (Count)
board.processor.cores3.core.fetch2.vecInstructions            0                       # Number of SIMD instructions successfully decoded (Count)
board.processor.cores3.core.fetch2.loadInstructions            0                       # Number of memory load instructions successfully decoded (Count)
board.processor.cores3.core.fetch2.storeInstructions            0                       # Number of memory store instructions successfully decoded (Count)
board.processor.cores3.core.fetch2.amoInstructions            0                       # Number of memory atomic instructions successfully decoded (Count)
board.processor.cores3.core.fetchStats0.numInsts            0                       # Number of instructions fetched (thread level) (Count)
board.processor.cores3.core.fetchStats0.numOps            0                       # Number of ops (including micro ops) fetched (thread level) (Count)
board.processor.cores3.core.fetchStats0.fetchRate            0                       # Number of inst fetches per cycle ((Count/Cycle))
board.processor.cores3.core.fetchStats0.branchRate            0                       # Number of branch fetches per cycle (Ratio)
board.processor.cores3.core.fetchStats0.numFetchSuspends            0                       # Number of times Execute suspended instruction fetching (Count)
board.processor.cores3.core.interrupts.clk_domain.clock         5328                       # Clock period in ticks (Tick)
board.processor.cores3.core.mmu.dtb.rdAccesses      2774462                       # TLB accesses on read requests (Count)
board.processor.cores3.core.mmu.dtb.wrAccesses       500206                       # TLB accesses on write requests (Count)
board.processor.cores3.core.mmu.dtb.rdMisses         1001                       # TLB misses on read requests (Count)
board.processor.cores3.core.mmu.dtb.wrMisses          492                       # TLB misses on write requests (Count)
board.processor.cores3.core.mmu.dtb.walker.power_state.pwrStateResidencyTicks::UNDEFINED  58686944976                       # Cumulative time (in ticks) in various power states (Tick)
board.processor.cores3.core.mmu.itb.rdAccesses            0                       # TLB accesses on read requests (Count)
board.processor.cores3.core.mmu.itb.wrAccesses      1025584                       # TLB accesses on write requests (Count)
board.processor.cores3.core.mmu.itb.rdMisses            0                       # TLB misses on read requests (Count)
board.processor.cores3.core.mmu.itb.wrMisses           22                       # TLB misses on write requests (Count)
board.processor.cores3.core.mmu.itb.walker.power_state.pwrStateResidencyTicks::UNDEFINED  58686944976                       # Cumulative time (in ticks) in various power states (Tick)
board.processor.cores3.core.power_state.pwrStateResidencyTicks::ON  58686944976                       # Cumulative time (in ticks) in various power states (Tick)
board.processor.cores3.core.thread_0.numInsts      5085499                       # Number of Instructions committed (Count)
board.processor.cores3.core.thread_0.numOps      7396738                       # Number of Ops committed (Count)
board.processor.cores3.core.thread_0.numMemRefs            0                       # Number of Memory References (Count)
board.workload.inst.arm                             0                       # number of arm instructions executed (Count)
board.workload.inst.quiesce                         0                       # number of quiesce instructions executed (Count)
board.processor.cores0.core.idleCycles       85517212                       # Total number of cycles that the object has spent stopped (Unspecified)
board.processor.cores0.core.tickCycles       90719860                       # Number of cycles that the object actually ticked (Unspecified)
board.processor.cores1.core.idleCycles       21210967                       # Total number of cycles that the object has spent stopped (Unspecified)
board.processor.cores1.core.tickCycles       10867608                       # Number of cycles that the object actually ticked (Unspecified)
board.processor.cores2.core.idleCycles       21219747                       # Total number of cycles that the object has spent stopped (Unspecified)
board.processor.cores2.core.tickCycles       10848988                       # Number of cycles that the object actually ticked (Unspecified)
board.processor.cores3.core.idleCycles       21190726                       # Total number of cycles that the object has spent stopped (Unspecified)
board.processor.cores3.core.tickCycles       10870446                       # Number of cycles that the object actually ticked (Unspecified)

---------- End Simulation Statistics   ----------
