
---------- Begin Simulation Statistics ----------
simSeconds                                   0.053902                       # Number of seconds simulated (Second)
simTicks                                  53901994383                       # Number of ticks simulated (Tick)
finalTick                                 53901994383                       # Number of ticks from beginning of simulation (restored from checkpoints and never reset) (Tick)
simFreq                                  1000000000000                       # The number of ticks per simulated second ((Tick/Second))
hostSeconds                                    459.58                       # Real time elapsed on the host (Second)
hostTickRate                                117285283                       # The number of ticks simulated per host second (ticks/s) ((Tick/Second))
hostMemory                                    2692236                       # Number of bytes of host memory used (Byte)
simInsts                                     50930267                       # Number of instructions simulated (Count)
simOps                                       81629219                       # Number of ops (including micro ops) simulated (Count)
hostInstRate                                   110819                       # Simulator instruction rate (inst/s) ((Count/Second))
hostOpRate                                     177617                       # Simulator op (including micro ops) rate (op/s) ((Count/Second))
board.cache_hierarchy.ruby_system.delayHistogram::bucket_size          256                       # delay histogram for all message (Unspecified)
board.cache_hierarchy.ruby_system.delayHistogram::max_bucket         2559                       # delay histogram for all message (Unspecified)
board.cache_hierarchy.ruby_system.delayHistogram::samples      5307297                       # delay histogram for all message (Unspecified)
board.cache_hierarchy.ruby_system.delayHistogram::mean     0.866536                       # delay histogram for all message (Unspecified)
board.cache_hierarchy.ruby_system.delayHistogram::stdev     2.981931                       # delay histogram for all message (Unspecified)
board.cache_hierarchy.ruby_system.delayHistogram |     5307291    100.00%    100.00% |           1      0.00%    100.00% |           1      0.00%    100.00% |           1      0.00%    100.00% |           0      0.00%    100.00% |           1      0.00%    100.00% |           1      0.00%    100.00% |           0      0.00%    100.00% |           1      0.00%    100.00% |           0      0.00%    100.00% # delay histogram for all message (Unspecified)
board.cache_hierarchy.ruby_system.delayHistogram::total      5307297                       # delay histogram for all message (Unspecified)
board.cache_hierarchy.ruby_system.m_outstandReqHistSeqr::bucket_size            1                       (Unspecified)
board.cache_hierarchy.ruby_system.m_outstandReqHistSeqr::max_bucket            9                       (Unspecified)
board.cache_hierarchy.ruby_system.m_outstandReqHistSeqr::samples     49111394                       (Unspecified)
board.cache_hierarchy.ruby_system.m_outstandReqHistSeqr::mean     1.219837                       (Unspecified)
board.cache_hierarchy.ruby_system.m_outstandReqHistSeqr::gmean     1.162784                       (Unspecified)
board.cache_hierarchy.ruby_system.m_outstandReqHistSeqr::stdev     0.427045                       (Unspecified)
board.cache_hierarchy.ruby_system.m_outstandReqHistSeqr |           0      0.00%      0.00% |    38581554     78.56%     78.56% |    10263187     20.90%     99.46% |      266653      0.54%    100.00% |           0      0.00%    100.00% |           0      0.00%    100.00% |           0      0.00%    100.00% |           0      0.00%    100.00% |           0      0.00%    100.00% |           0      0.00%    100.00% (Unspecified)
board.cache_hierarchy.ruby_system.m_outstandReqHistSeqr::total     49111394                       (Unspecified)
board.cache_hierarchy.ruby_system.m_latencyHistSeqr::bucket_size          256                       (Unspecified)
board.cache_hierarchy.ruby_system.m_latencyHistSeqr::max_bucket         2559                       (Unspecified)
board.cache_hierarchy.ruby_system.m_latencyHistSeqr::samples     49111431                       (Unspecified)
board.cache_hierarchy.ruby_system.m_latencyHistSeqr::mean     4.612215                       (Unspecified)
board.cache_hierarchy.ruby_system.m_latencyHistSeqr::gmean     1.086650                       (Unspecified)
board.cache_hierarchy.ruby_system.m_latencyHistSeqr::stdev    33.292770                       (Unspecified)
board.cache_hierarchy.ruby_system.m_latencyHistSeqr |    49003703     99.78%     99.78% |       64019      0.13%     99.91% |       33732      0.07%     99.98% |        7744      0.02%    100.00% |        1641      0.00%    100.00% |         564      0.00%    100.00% |          28      0.00%    100.00% |           0      0.00%    100.00% |           0      0.00%    100.00% |           0      0.00%    100.00% (Unspecified)
board.cache_hierarchy.ruby_system.m_latencyHistSeqr::total     49111431                       (Unspecified)
board.cache_hierarchy.ruby_system.m_hitLatencyHistSeqr::bucket_size            1                       (Unspecified)
board.cache_hierarchy.ruby_system.m_hitLatencyHistSeqr::max_bucket            9                       (Unspecified)
board.cache_hierarchy.ruby_system.m_hitLatencyHistSeqr::samples     48349120                       (Unspecified)
board.cache_hierarchy.ruby_system.m_hitLatencyHistSeqr::mean     1.000001                       (Unspecified)
board.cache_hierarchy.ruby_system.m_hitLatencyHistSeqr::gmean     1.000001                       (Unspecified)
board.cache_hierarchy.ruby_system.m_hitLatencyHistSeqr::stdev     0.000875                       (Unspecified)
board.cache_hierarchy.ruby_system.m_hitLatencyHistSeqr |           0      0.00%      0.00% |    48349083    100.00%    100.00% |          37      0.00%    100.00% |           0      0.00%    100.00% |           0      0.00%    100.00% |           0      0.00%    100.00% |           0      0.00%    100.00% |           0      0.00%    100.00% |           0      0.00%    100.00% |           0      0.00%    100.00% (Unspecified)
board.cache_hierarchy.ruby_system.m_hitLatencyHistSeqr::total     48349120                       (Unspecified)
board.cache_hierarchy.ruby_system.m_missLatencyHistSeqr::bucket_size          256                       (Unspecified)
board.cache_hierarchy.ruby_system.m_missLatencyHistSeqr::max_bucket         2559                       (Unspecified)
board.cache_hierarchy.ruby_system.m_missLatencyHistSeqr::samples       762311                       (Unspecified)
board.cache_hierarchy.ruby_system.m_missLatencyHistSeqr::mean   233.714741                       (Unspecified)
board.cache_hierarchy.ruby_system.m_missLatencyHistSeqr::gmean   211.371400                       (Unspecified)
board.cache_hierarchy.ruby_system.m_missLatencyHistSeqr::stdev   134.510394                       (Unspecified)
board.cache_hierarchy.ruby_system.m_missLatencyHistSeqr |      654583     85.87%     85.87% |       64019      8.40%     94.27% |       33732      4.42%     98.69% |        7744      1.02%     99.71% |        1641      0.22%     99.92% |         564      0.07%    100.00% |          28      0.00%    100.00% |           0      0.00%    100.00% |           0      0.00%    100.00% |           0      0.00%    100.00% (Unspecified)
board.cache_hierarchy.ruby_system.m_missLatencyHistSeqr::total       762311                       (Unspecified)
board.cache_hierarchy.ruby_system.delayVCHist.vnet_0::bucket_size          256                       # delay histogram for vnet_0 (Unspecified)
board.cache_hierarchy.ruby_system.delayVCHist.vnet_0::max_bucket         2559                       # delay histogram for vnet_0 (Unspecified)
board.cache_hierarchy.ruby_system.delayVCHist.vnet_0::samples      2078250                       # delay histogram for vnet_0 (Unspecified)
board.cache_hierarchy.ruby_system.delayVCHist.vnet_0::mean     2.037773                       # delay histogram for vnet_0 (Unspecified)
board.cache_hierarchy.ruby_system.delayVCHist.vnet_0::stdev     4.417857                       # delay histogram for vnet_0 (Unspecified)
board.cache_hierarchy.ruby_system.delayVCHist.vnet_0 |     2078244    100.00%    100.00% |           1      0.00%    100.00% |           1      0.00%    100.00% |           1      0.00%    100.00% |           0      0.00%    100.00% |           1      0.00%    100.00% |           1      0.00%    100.00% |           0      0.00%    100.00% |           1      0.00%    100.00% |           0      0.00%    100.00% # delay histogram for vnet_0 (Unspecified)
board.cache_hierarchy.ruby_system.delayVCHist.vnet_0::total      2078250                       # delay histogram for vnet_0 (Unspecified)
board.cache_hierarchy.ruby_system.delayVCHist.vnet_1::bucket_size            8                       # delay histogram for vnet_1 (Unspecified)
board.cache_hierarchy.ruby_system.delayVCHist.vnet_1::max_bucket           79                       # delay histogram for vnet_1 (Unspecified)
board.cache_hierarchy.ruby_system.delayVCHist.vnet_1::samples      3031877                       # delay histogram for vnet_1 (Unspecified)
board.cache_hierarchy.ruby_system.delayVCHist.vnet_1::mean     0.119977                       # delay histogram for vnet_1 (Unspecified)
board.cache_hierarchy.ruby_system.delayVCHist.vnet_1::stdev     0.800126                       # delay histogram for vnet_1 (Unspecified)
board.cache_hierarchy.ruby_system.delayVCHist.vnet_1 |     3024549     99.76%     99.76% |        7057      0.23%     99.99% |         232      0.01%    100.00% |          16      0.00%    100.00% |           7      0.00%    100.00% |          13      0.00%    100.00% |           3      0.00%    100.00% |           0      0.00%    100.00% |           0      0.00%    100.00% |           0      0.00%    100.00% # delay histogram for vnet_1 (Unspecified)
board.cache_hierarchy.ruby_system.delayVCHist.vnet_1::total      3031877                       # delay histogram for vnet_1 (Unspecified)
board.cache_hierarchy.ruby_system.delayVCHist.vnet_2::bucket_size            1                       # delay histogram for vnet_2 (Unspecified)
board.cache_hierarchy.ruby_system.delayVCHist.vnet_2::max_bucket            9                       # delay histogram for vnet_2 (Unspecified)
board.cache_hierarchy.ruby_system.delayVCHist.vnet_2::samples       197170                       # delay histogram for vnet_2 (Unspecified)
board.cache_hierarchy.ruby_system.delayVCHist.vnet_2::mean     0.001065                       # delay histogram for vnet_2 (Unspecified)
board.cache_hierarchy.ruby_system.delayVCHist.vnet_2::stdev     0.046141                       # delay histogram for vnet_2 (Unspecified)
board.cache_hierarchy.ruby_system.delayVCHist.vnet_2 |      197065     99.95%     99.95% |           0      0.00%     99.95% |         105      0.05%    100.00% |           0      0.00%    100.00% |           0      0.00%    100.00% |           0      0.00%    100.00% |           0      0.00%    100.00% |           0      0.00%    100.00% |           0      0.00%    100.00% |           0      0.00%    100.00% # delay histogram for vnet_2 (Unspecified)
board.cache_hierarchy.ruby_system.delayVCHist.vnet_2::total       197170                       # delay histogram for vnet_2 (Unspecified)
board.cache_hierarchy.ruby_system.Directory_Controller.Fetch       757707      0.00%      0.00% (Unspecified)
board.cache_hierarchy.ruby_system.Directory_Controller.Data       500633      0.00%      0.00% (Unspecified)
board.cache_hierarchy.ruby_system.Directory_Controller.Memory_Data       757707      0.00%      0.00% (Unspecified)
board.cache_hierarchy.ruby_system.Directory_Controller.Memory_Ack       500633      0.00%      0.00% (Unspecified)
board.cache_hierarchy.ruby_system.Directory_Controller.CleanReplacement       252978      0.00%      0.00% (Unspecified)
board.cache_hierarchy.ruby_system.Directory_Controller.I.Fetch       757707      0.00%      0.00% (Unspecified)
board.cache_hierarchy.ruby_system.Directory_Controller.M.Data       500633      0.00%      0.00% (Unspecified)
board.cache_hierarchy.ruby_system.Directory_Controller.M.CleanReplacement       252978      0.00%      0.00% (Unspecified)
board.cache_hierarchy.ruby_system.Directory_Controller.IM.Memory_Data       757707      0.00%      0.00% (Unspecified)
board.cache_hierarchy.ruby_system.Directory_Controller.MI.Memory_Ack       500633      0.00%      0.00% (Unspecified)
board.cache_hierarchy.ruby_system.L1Cache_Controller.Load |    16179216     66.67%     66.67% |     1160931      4.78%     71.46% |     1155018      4.76%     76.22% |     1155134      4.76%     80.98% |     1149760      4.74%     85.71% |     1159812      4.78%     90.49% |     1150036      4.74%     95.23% |     1156837      4.77%    100.00% (Unspecified)
board.cache_hierarchy.ruby_system.L1Cache_Controller.Load::total     24266744                       (Unspecified)
board.cache_hierarchy.ruby_system.L1Cache_Controller.Ifetch |     9582186     71.96%     71.96% |      541467      4.07%     76.02% |      532623      4.00%     80.02% |      532783      4.00%     84.02% |      524838      3.94%     87.96% |      540298      4.06%     92.02% |      526073      3.95%     95.97% |      536616      4.03%    100.00% (Unspecified)
board.cache_hierarchy.ruby_system.L1Cache_Controller.Ifetch::total     13316884                       (Unspecified)
board.cache_hierarchy.ruby_system.L1Cache_Controller.Store |     9010664     78.16%     78.16% |      359603      3.12%     81.28% |      359585      3.12%     84.40% |      359592      3.12%     87.52% |      359585      3.12%     90.64% |      359594      3.12%     93.76% |      359592      3.12%     96.88% |      359588      3.12%    100.00% (Unspecified)
board.cache_hierarchy.ruby_system.L1Cache_Controller.Store::total     11527803                       (Unspecified)
board.cache_hierarchy.ruby_system.L1Cache_Controller.Inv |       36922     18.74%     18.74% |       19608      9.95%     28.69% |       32982     16.74%     45.44% |        7788      3.95%     49.39% |       29783     15.12%     64.51% |       15901      8.07%     72.58% |       36550     18.55%     91.13% |       17477      8.87%    100.00% (Unspecified)
board.cache_hierarchy.ruby_system.L1Cache_Controller.Inv::total       197011                       (Unspecified)
board.cache_hierarchy.ruby_system.L1Cache_Controller.L1_Replacement |      426281     56.74%     56.74% |       46435      6.18%     62.92% |       46435      6.18%     69.10% |       46435      6.18%     75.28% |       46439      6.18%     81.46% |       46435      6.18%     87.64% |       46435      6.18%     93.82% |       46434      6.18%    100.00% (Unspecified)
board.cache_hierarchy.ruby_system.L1Cache_Controller.L1_Replacement::total       751329                       (Unspecified)
board.cache_hierarchy.ruby_system.L1Cache_Controller.Fwd_GETX |          33     53.23%     53.23% |           4      6.45%     59.68% |           5      8.06%     67.74% |           5      8.06%     75.81% |           4      6.45%     82.26% |           5      8.06%     90.32% |           5      8.06%     98.39% |           1      1.61%    100.00% (Unspecified)
board.cache_hierarchy.ruby_system.L1Cache_Controller.Fwd_GETX::total           62                       (Unspecified)
board.cache_hierarchy.ruby_system.L1Cache_Controller.Fwd_GETS |          79     81.44%     81.44% |          15     15.46%     96.91% |           0      0.00%     96.91% |           0      0.00%     96.91% |           2      2.06%     98.97% |           0      0.00%     98.97% |           0      0.00%     98.97% |           1      1.03%    100.00% (Unspecified)
board.cache_hierarchy.ruby_system.L1Cache_Controller.Fwd_GETS::total           97                       (Unspecified)
board.cache_hierarchy.ruby_system.L1Cache_Controller.Data |           1    100.00%    100.00% |           0      0.00%    100.00% |           0      0.00%    100.00% |           0      0.00%    100.00% |           0      0.00%    100.00% |           0      0.00%    100.00% |           0      0.00%    100.00% |           0      0.00%    100.00% (Unspecified)
board.cache_hierarchy.ruby_system.L1Cache_Controller.Data::total            1                       (Unspecified)
board.cache_hierarchy.ruby_system.L1Cache_Controller.Data_Exclusive |       33257     13.13%     13.13% |       31451     12.42%     25.55% |       31412     12.40%     37.96% |       31421     12.41%     50.37% |       31415     12.41%     62.77% |       31438     12.41%     75.19% |       31413     12.41%     87.59% |       31419     12.41%    100.00% (Unspecified)
board.cache_hierarchy.ruby_system.L1Cache_Controller.Data_Exclusive::total       253226                       (Unspecified)
board.cache_hierarchy.ruby_system.L1Cache_Controller.DataS_fromL1 |           2      2.06%      2.06% |          18     18.56%     20.62% |          21     21.65%     42.27% |          12     12.37%     54.64% |          11     11.34%     65.98% |          13     13.40%     79.38% |          10     10.31%     89.69% |          10     10.31%    100.00% (Unspecified)
board.cache_hierarchy.ruby_system.L1Cache_Controller.DataS_fromL1::total           97                       (Unspecified)
board.cache_hierarchy.ruby_system.L1Cache_Controller.Data_all_Acks |      395304     77.67%     77.67% |       16221      3.19%     80.86% |       16234      3.19%     84.05% |       16234      3.19%     87.23% |       16247      3.19%     90.43% |       16242      3.19%     93.62% |       16245      3.19%     96.81% |       16237      3.19%    100.00% (Unspecified)
board.cache_hierarchy.ruby_system.L1Cache_Controller.Data_all_Acks::total       508964                       (Unspecified)
board.cache_hierarchy.ruby_system.L1Cache_Controller.Ack |          13     31.71%     31.71% |           2      4.88%     36.59% |           2      4.88%     41.46% |           2      4.88%     46.34% |           9     21.95%     68.29% |           2      4.88%     73.17% |           2      4.88%     78.05% |           9     21.95%    100.00% (Unspecified)
board.cache_hierarchy.ruby_system.L1Cache_Controller.Ack::total           41                       (Unspecified)
board.cache_hierarchy.ruby_system.L1Cache_Controller.Ack_all |           8     33.33%     33.33% |           2      8.33%     41.67% |           2      8.33%     50.00% |           2      8.33%     58.33% |           3     12.50%     70.83% |           2      8.33%     79.17% |           2      8.33%     87.50% |           3     12.50%    100.00% (Unspecified)
board.cache_hierarchy.ruby_system.L1Cache_Controller.Ack_all::total           24                       (Unspecified)
board.cache_hierarchy.ruby_system.L1Cache_Controller.WB_Ack |      390274     69.55%     69.55% |       27712      4.94%     74.49% |       14318      2.55%     77.04% |       39387      7.02%     84.06% |       17426      3.11%     87.16% |       31430      5.60%     92.77% |       10758      1.92%     94.68% |       29835      5.32%    100.00% (Unspecified)
board.cache_hierarchy.ruby_system.L1Cache_Controller.WB_Ack::total       561140                       (Unspecified)
board.cache_hierarchy.ruby_system.L1Cache_Controller.NP.Load |       33003     13.09%     13.09% |       31295     12.42%     25.51% |       31295     12.42%     37.92% |       31295     12.42%     50.34% |       31298     12.42%     62.75% |       31295     12.42%     75.17% |       31295     12.42%     87.59% |       31294     12.41%    100.00% (Unspecified)
board.cache_hierarchy.ruby_system.L1Cache_Controller.NP.Load::total       252070                       (Unspecified)
board.cache_hierarchy.ruby_system.L1Cache_Controller.NP.Ifetch |        2693     70.37%     70.37% |         160      4.18%     74.55% |         162      4.23%     78.78% |         162      4.23%     83.02% |         164      4.29%     87.30% |         162      4.23%     91.53% |         162      4.23%     95.77% |         162      4.23%    100.00% (Unspecified)
board.cache_hierarchy.ruby_system.L1Cache_Controller.NP.Ifetch::total         3827                       (Unspecified)
board.cache_hierarchy.ruby_system.L1Cache_Controller.NP.Store |      391609     78.14%     78.14% |       15652      3.12%     81.26% |       15652      3.12%     84.38% |       15652      3.12%     87.51% |       15653      3.12%     90.63% |       15652      3.12%     93.75% |       15652      3.12%     96.88% |       15652      3.12%    100.00% (Unspecified)
board.cache_hierarchy.ruby_system.L1Cache_Controller.NP.Store::total       501174                       (Unspecified)
board.cache_hierarchy.ruby_system.L1Cache_Controller.NP.Inv |        1201     93.83%     93.83% |          10      0.78%     94.61% |          13      1.02%     95.62% |          12      0.94%     96.56% |          14      1.09%     97.66% |          12      0.94%     98.59% |           9      0.70%     99.30% |           9      0.70%    100.00% (Unspecified)
board.cache_hierarchy.ruby_system.L1Cache_Controller.NP.Inv::total         1280                       (Unspecified)
board.cache_hierarchy.ruby_system.L1Cache_Controller.I.Load |         264     18.41%     18.41% |         182     12.69%     31.10% |         157     10.95%     42.05% |         167     11.65%     53.70% |         158     11.02%     64.71% |         184     12.83%     77.55% |         159     11.09%     88.63% |         163     11.37%    100.00% (Unspecified)
board.cache_hierarchy.ruby_system.L1Cache_Controller.I.Load::total         1434                       (Unspecified)
board.cache_hierarchy.ruby_system.L1Cache_Controller.I.Ifetch |         882     25.17%     25.17% |         374     10.67%     35.84% |         374     10.67%     46.52% |         374     10.67%     57.19% |         375     10.70%     67.89% |         375     10.70%     78.60% |         375     10.70%     89.30% |         375     10.70%    100.00% (Unspecified)
board.cache_hierarchy.ruby_system.L1Cache_Controller.I.Ifetch::total         3504                       (Unspecified)
board.cache_hierarchy.ruby_system.L1Cache_Controller.I.Store |         113     40.50%     40.50% |          27      9.68%     50.18% |          27      9.68%     59.86% |          17      6.09%     65.95% |          25      8.96%     74.91% |          25      8.96%     83.87% |          25      8.96%     92.83% |          20      7.17%    100.00% (Unspecified)
board.cache_hierarchy.ruby_system.L1Cache_Controller.I.Store::total          279                       (Unspecified)
board.cache_hierarchy.ruby_system.L1Cache_Controller.I.L1_Replacement |       34436     18.26%     18.26% |       18713      9.93%     28.19% |       32104     17.03%     45.22% |        7036      3.73%     48.95% |       28999     15.38%     64.33% |       14993      7.95%     72.28% |       35668     18.92%     91.20% |       16590      8.80%    100.00% (Unspecified)
board.cache_hierarchy.ruby_system.L1Cache_Controller.I.L1_Replacement::total       188539                       (Unspecified)
board.cache_hierarchy.ruby_system.L1Cache_Controller.S.Load |        1065      0.50%      0.50% |       35583     16.78%     17.28% |       29826     14.07%     31.35% |       29934     14.12%     45.47% |       24551     11.58%     57.04% |       34618     16.33%     73.37% |       24836     11.71%     85.08% |       31630     14.92%    100.00% (Unspecified)
board.cache_hierarchy.ruby_system.L1Cache_Controller.S.Load::total       212043                       (Unspecified)
board.cache_hierarchy.ruby_system.L1Cache_Controller.S.Ifetch |     9578611     71.97%     71.97% |      540933      4.06%     76.03% |      532087      4.00%     80.03% |      532247      4.00%     84.03% |      524299      3.94%     87.97% |      539761      4.06%     92.02% |      525536      3.95%     95.97% |      536079      4.03%    100.00% (Unspecified)
board.cache_hierarchy.ruby_system.L1Cache_Controller.S.Ifetch::total     13309553                       (Unspecified)
board.cache_hierarchy.ruby_system.L1Cache_Controller.S.Store |           7     30.43%     30.43% |           2      8.70%     39.13% |           2      8.70%     47.83% |           2      8.70%     56.52% |           3     13.04%     69.57% |           2      8.70%     78.26% |           2      8.70%     86.96% |           3     13.04%    100.00% (Unspecified)
board.cache_hierarchy.ruby_system.L1Cache_Controller.S.Store::total           23                       (Unspecified)
board.cache_hierarchy.ruby_system.L1Cache_Controller.S.Inv |        1620     30.15%     30.15% |         536      9.97%     40.12% |         534      9.94%     50.06% |         536      9.97%     60.03% |         534      9.94%     69.97% |         537      9.99%     79.96% |         540     10.05%     90.01% |         537      9.99%    100.00% (Unspecified)
board.cache_hierarchy.ruby_system.L1Cache_Controller.S.Inv::total         5374                       (Unspecified)
board.cache_hierarchy.ruby_system.L1Cache_Controller.S.L1_Replacement |        1571     95.21%     95.21% |          10      0.61%     95.82% |          13      0.79%     96.61% |          12      0.73%     97.33% |          14      0.85%     98.18% |          12      0.73%     98.91% |           9      0.55%     99.45% |           9      0.55%    100.00% (Unspecified)
board.cache_hierarchy.ruby_system.L1Cache_Controller.S.L1_Replacement::total         1650                       (Unspecified)
board.cache_hierarchy.ruby_system.L1Cache_Controller.E.Load |     9441614     69.56%     69.56% |      590016      4.35%     73.91% |      589289      4.34%     78.25% |      590994      4.35%     82.60% |      591170      4.36%     86.96% |      589722      4.34%     91.30% |      590264      4.35%     95.65% |      590531      4.35%    100.00% (Unspecified)
board.cache_hierarchy.ruby_system.L1Cache_Controller.E.Load::total     13573600                       (Unspecified)
board.cache_hierarchy.ruby_system.L1Cache_Controller.E.Store |         204     28.81%     28.81% |          78     11.02%     39.83% |          65      9.18%     49.01% |          75     10.59%     59.60% |          67      9.46%     69.07% |          80     11.30%     80.37% |          67      9.46%     89.83% |          72     10.17%    100.00% (Unspecified)
board.cache_hierarchy.ruby_system.L1Cache_Controller.E.Store::total          708                       (Unspecified)
board.cache_hierarchy.ruby_system.L1Cache_Controller.E.Inv |       18838     14.71%     14.71% |       15058     11.76%     26.47% |       19095     14.91%     41.38% |        5914      4.62%     46.00% |       16982     13.26%     59.27% |       15172     11.85%     71.11% |       20774     16.22%     87.34% |       16213     12.66%    100.00% (Unspecified)
board.cache_hierarchy.ruby_system.L1Cache_Controller.E.Inv::total       128046                       (Unspecified)
board.cache_hierarchy.ruby_system.L1Cache_Controller.E.L1_Replacement |       13910     11.34%     11.34% |       16121     13.14%     24.48% |       12060      9.83%     34.30% |       25156     20.50%     54.81% |       14115     11.50%     66.31% |       16006     13.05%     79.36% |       10377      8.46%     87.81% |       14953     12.19%    100.00% (Unspecified)
board.cache_hierarchy.ruby_system.L1Cache_Controller.E.L1_Replacement::total       122698                       (Unspecified)
board.cache_hierarchy.ruby_system.L1Cache_Controller.E.Fwd_GETX |           1    100.00%    100.00% |           0      0.00%    100.00% |           0      0.00%    100.00% |           0      0.00%    100.00% |           0      0.00%    100.00% |           0      0.00%    100.00% |           0      0.00%    100.00% |           0      0.00%    100.00% (Unspecified)
board.cache_hierarchy.ruby_system.L1Cache_Controller.E.Fwd_GETX::total            1                       (Unspecified)
board.cache_hierarchy.ruby_system.L1Cache_Controller.E.Fwd_GETS |           4     21.05%     21.05% |          15     78.95%    100.00% |           0      0.00%    100.00% |           0      0.00%    100.00% |           0      0.00%    100.00% |           0      0.00%    100.00% |           0      0.00%    100.00% |           0      0.00%    100.00% (Unspecified)
board.cache_hierarchy.ruby_system.L1Cache_Controller.E.Fwd_GETS::total           19                       (Unspecified)
board.cache_hierarchy.ruby_system.L1Cache_Controller.M.Load |     6703270     65.54%     65.54% |      503855      4.93%     70.47% |      504451      4.93%     75.40% |      502744      4.92%     80.32% |      502583      4.91%     85.23% |      503993      4.93%     90.16% |      503482      4.92%     95.08% |      503219      4.92%    100.00% (Unspecified)
board.cache_hierarchy.ruby_system.L1Cache_Controller.M.Load::total     10227597                       (Unspecified)
board.cache_hierarchy.ruby_system.L1Cache_Controller.M.Store |     8618731     78.17%     78.17% |      343844      3.12%     81.29% |      343839      3.12%     84.41% |      343846      3.12%     87.53% |      343837      3.12%     90.64% |      343835      3.12%     93.76% |      343846      3.12%     96.88% |      343841      3.12%    100.00% (Unspecified)
board.cache_hierarchy.ruby_system.L1Cache_Controller.M.Store::total     11025619                       (Unspecified)
board.cache_hierarchy.ruby_system.L1Cache_Controller.M.Inv |       15263     24.50%     24.50% |        4004      6.43%     30.93% |       13338     21.41%     52.34% |        1326      2.13%     54.47% |       12253     19.67%     74.14% |         180      0.29%     74.43% |       15216     24.43%     98.85% |         715      1.15%    100.00% (Unspecified)
board.cache_hierarchy.ruby_system.L1Cache_Controller.M.Inv::total        62295                       (Unspecified)
board.cache_hierarchy.ruby_system.L1Cache_Controller.M.L1_Replacement |      376364     85.84%     85.84% |       11591      2.64%     88.48% |        2258      0.52%     89.00% |       14231      3.25%     92.25% |        3311      0.76%     93.00% |       15424      3.52%     96.52% |         381      0.09%     96.61% |       14882      3.39%    100.00% (Unspecified)
board.cache_hierarchy.ruby_system.L1Cache_Controller.M.L1_Replacement::total       438442                       (Unspecified)
board.cache_hierarchy.ruby_system.L1Cache_Controller.M.Fwd_GETX |          32     52.46%     52.46% |           4      6.56%     59.02% |           5      8.20%     67.21% |           5      8.20%     75.41% |           4      6.56%     81.97% |           5      8.20%     90.16% |           5      8.20%     98.36% |           1      1.64%    100.00% (Unspecified)
board.cache_hierarchy.ruby_system.L1Cache_Controller.M.Fwd_GETX::total           61                       (Unspecified)
board.cache_hierarchy.ruby_system.L1Cache_Controller.M.Fwd_GETS |          75     96.15%     96.15% |           0      0.00%     96.15% |           0      0.00%     96.15% |           0      0.00%     96.15% |           2      2.56%     98.72% |           0      0.00%     98.72% |           0      0.00%     98.72% |           1      1.28%    100.00% (Unspecified)
board.cache_hierarchy.ruby_system.L1Cache_Controller.M.Fwd_GETS::total           78                       (Unspecified)
board.cache_hierarchy.ruby_system.L1Cache_Controller.IS.Data_Exclusive |       33257     13.13%     13.13% |       31451     12.42%     25.55% |       31412     12.40%     37.96% |       31421     12.41%     50.37% |       31415     12.41%     62.77% |       31438     12.41%     75.19% |       31413     12.41%     87.59% |       31419     12.41%    100.00% (Unspecified)
board.cache_hierarchy.ruby_system.L1Cache_Controller.IS.Data_Exclusive::total       253226                       (Unspecified)
board.cache_hierarchy.ruby_system.L1Cache_Controller.IS.DataS_fromL1 |           2      2.06%      2.06% |          18     18.56%     20.62% |          21     21.65%     42.27% |          12     12.37%     54.64% |          11     11.34%     65.98% |          13     13.40%     79.38% |          10     10.31%     89.69% |          10     10.31%    100.00% (Unspecified)
board.cache_hierarchy.ruby_system.L1Cache_Controller.IS.DataS_fromL1::total           97                       (Unspecified)
board.cache_hierarchy.ruby_system.L1Cache_Controller.IS.Data_all_Acks |        3583     47.70%     47.70% |         542      7.22%     54.91% |         555      7.39%     62.30% |         565      7.52%     69.82% |         569      7.57%     77.40% |         565      7.52%     84.92% |         568      7.56%     92.48% |         565      7.52%    100.00% (Unspecified)
board.cache_hierarchy.ruby_system.L1Cache_Controller.IS.Data_all_Acks::total         7512                       (Unspecified)
board.cache_hierarchy.ruby_system.L1Cache_Controller.IM.Data |           1    100.00%    100.00% |           0      0.00%    100.00% |           0      0.00%    100.00% |           0      0.00%    100.00% |           0      0.00%    100.00% |           0      0.00%    100.00% |           0      0.00%    100.00% |           0      0.00%    100.00% (Unspecified)
board.cache_hierarchy.ruby_system.L1Cache_Controller.IM.Data::total            1                       (Unspecified)
board.cache_hierarchy.ruby_system.L1Cache_Controller.IM.Data_all_Acks |      391721     78.12%     78.12% |       15679      3.13%     81.24% |       15679      3.13%     84.37% |       15669      3.12%     87.50% |       15678      3.13%     90.62% |       15677      3.13%     93.75% |       15677      3.13%     96.87% |       15672      3.13%    100.00% (Unspecified)
board.cache_hierarchy.ruby_system.L1Cache_Controller.IM.Data_all_Acks::total       501452                       (Unspecified)
board.cache_hierarchy.ruby_system.L1Cache_Controller.SM.Ack |          13     31.71%     31.71% |           2      4.88%     36.59% |           2      4.88%     41.46% |           2      4.88%     46.34% |           9     21.95%     68.29% |           2      4.88%     73.17% |           2      4.88%     78.05% |           9     21.95%    100.00% (Unspecified)
board.cache_hierarchy.ruby_system.L1Cache_Controller.SM.Ack::total           41                       (Unspecified)
board.cache_hierarchy.ruby_system.L1Cache_Controller.SM.Ack_all |           8     33.33%     33.33% |           2      8.33%     41.67% |           2      8.33%     50.00% |           2      8.33%     58.33% |           3     12.50%     70.83% |           2      8.33%     79.17% |           2      8.33%     87.50% |           3     12.50%    100.00% (Unspecified)
board.cache_hierarchy.ruby_system.L1Cache_Controller.SM.Ack_all::total           24                       (Unspecified)
board.cache_hierarchy.ruby_system.L1Cache_Controller.M_I.Inv |           0      0.00%      0.00% |           0      0.00%      0.00% |           2     12.50%     12.50% |           0      0.00%     12.50% |           0      0.00%     12.50% |           0      0.00%     12.50% |          11     68.75%     81.25% |           3     18.75%    100.00% (Unspecified)
board.cache_hierarchy.ruby_system.L1Cache_Controller.M_I.Inv::total           16                       (Unspecified)
board.cache_hierarchy.ruby_system.L1Cache_Controller.M_I.WB_Ack |      390274     69.55%     69.55% |       27712      4.94%     74.49% |       14316      2.55%     77.04% |       39387      7.02%     84.06% |       17426      3.11%     87.17% |       31430      5.60%     92.77% |       10747      1.92%     94.68% |       29832      5.32%    100.00% (Unspecified)
board.cache_hierarchy.ruby_system.L1Cache_Controller.M_I.WB_Ack::total       561124                       (Unspecified)
board.cache_hierarchy.ruby_system.L1Cache_Controller.SINK_WB_ACK.WB_Ack |           0      0.00%      0.00% |           0      0.00%      0.00% |           2     12.50%     12.50% |           0      0.00%     12.50% |           0      0.00%     12.50% |           0      0.00%     12.50% |          11     68.75%     81.25% |           3     18.75%    100.00% (Unspecified)
board.cache_hierarchy.ruby_system.L1Cache_Controller.SINK_WB_ACK.WB_Ack::total           16                       (Unspecified)
board.cache_hierarchy.ruby_system.L2Cache_Controller.L1_GET_INSTR         7662      0.00%      0.00% (Unspecified)
board.cache_hierarchy.ruby_system.L2Cache_Controller.L1_GETS       253962      0.00%      0.00% (Unspecified)
board.cache_hierarchy.ruby_system.L2Cache_Controller.L1_GETX       501565      0.00%      0.00% (Unspecified)
board.cache_hierarchy.ruby_system.L2Cache_Controller.L1_UPGRADE           23      0.00%      0.00% (Unspecified)
board.cache_hierarchy.ruby_system.L2Cache_Controller.L1_PUTX       561124      0.00%      0.00% (Unspecified)
board.cache_hierarchy.ruby_system.L2Cache_Controller.L1_PUTX_old           29      0.00%      0.00% (Unspecified)
board.cache_hierarchy.ruby_system.L2Cache_Controller.L2_Replacement       438355      0.00%      0.00% (Unspecified)
board.cache_hierarchy.ruby_system.L2Cache_Controller.L2_Replacement_clean       315256      0.00%      0.00% (Unspecified)
board.cache_hierarchy.ruby_system.L2Cache_Controller.Mem_Data       757707      0.00%      0.00% (Unspecified)
board.cache_hierarchy.ruby_system.L2Cache_Controller.Mem_Ack       753611      0.00%      0.00% (Unspecified)
board.cache_hierarchy.ruby_system.L2Cache_Controller.WB_Data        62375      0.00%      0.00% (Unspecified)
board.cache_hierarchy.ruby_system.L2Cache_Controller.WB_Data_clean           33      0.00%      0.00% (Unspecified)
board.cache_hierarchy.ruby_system.L2Cache_Controller.Ack         3669      0.00%      0.00% (Unspecified)
board.cache_hierarchy.ruby_system.L2Cache_Controller.Ack_all       130989      0.00%      0.00% (Unspecified)
board.cache_hierarchy.ruby_system.L2Cache_Controller.Unblock           97      0.00%      0.00% (Unspecified)
board.cache_hierarchy.ruby_system.L2Cache_Controller.Exclusive_Unblock       754702      0.00%      0.00% (Unspecified)
board.cache_hierarchy.ruby_system.L2Cache_Controller.NP.L1_GET_INSTR         3497      0.00%      0.00% (Unspecified)
board.cache_hierarchy.ruby_system.L2Cache_Controller.NP.L1_GETS       252861      0.00%      0.00% (Unspecified)
board.cache_hierarchy.ruby_system.L2Cache_Controller.NP.L1_GETX       501349      0.00%      0.00% (Unspecified)
board.cache_hierarchy.ruby_system.L2Cache_Controller.NP.L1_PUTX_old           13      0.00%      0.00% (Unspecified)
board.cache_hierarchy.ruby_system.L2Cache_Controller.SS.L1_GET_INSTR         1780      0.00%      0.00% (Unspecified)
board.cache_hierarchy.ruby_system.L2Cache_Controller.SS.L1_GETS          149      0.00%      0.00% (Unspecified)
board.cache_hierarchy.ruby_system.L2Cache_Controller.SS.L1_GETX            2      0.00%      0.00% (Unspecified)
board.cache_hierarchy.ruby_system.L2Cache_Controller.SS.L1_UPGRADE           23      0.00%      0.00% (Unspecified)
board.cache_hierarchy.ruby_system.L2Cache_Controller.SS.L2_Replacement           54      0.00%      0.00% (Unspecified)
board.cache_hierarchy.ruby_system.L2Cache_Controller.SS.L2_Replacement_clean         2889      0.00%      0.00% (Unspecified)
board.cache_hierarchy.ruby_system.L2Cache_Controller.M.L1_GET_INSTR            1      0.00%      0.00% (Unspecified)
board.cache_hierarchy.ruby_system.L2Cache_Controller.M.L1_GETS          370      0.00%      0.00% (Unspecified)
board.cache_hierarchy.ruby_system.L2Cache_Controller.M.L1_GETX           40      0.00%      0.00% (Unspecified)
board.cache_hierarchy.ruby_system.L2Cache_Controller.M.L2_Replacement       438281      0.00%      0.00% (Unspecified)
board.cache_hierarchy.ruby_system.L2Cache_Controller.M.L2_Replacement_clean       122030      0.00%      0.00% (Unspecified)
board.cache_hierarchy.ruby_system.L2Cache_Controller.MT.L1_GETS           97      0.00%      0.00% (Unspecified)
board.cache_hierarchy.ruby_system.L2Cache_Controller.MT.L1_GETX           62      0.00%      0.00% (Unspecified)
board.cache_hierarchy.ruby_system.L2Cache_Controller.MT.L1_PUTX       561124      0.00%      0.00% (Unspecified)
board.cache_hierarchy.ruby_system.L2Cache_Controller.MT.L2_Replacement           20      0.00%      0.00% (Unspecified)
board.cache_hierarchy.ruby_system.L2Cache_Controller.MT.L2_Replacement_clean       190337      0.00%      0.00% (Unspecified)
board.cache_hierarchy.ruby_system.L2Cache_Controller.M_I.L1_GET_INSTR          329      0.00%      0.00% (Unspecified)
board.cache_hierarchy.ruby_system.L2Cache_Controller.M_I.L1_GETS          417      0.00%      0.00% (Unspecified)
board.cache_hierarchy.ruby_system.L2Cache_Controller.M_I.L1_GETX           84      0.00%      0.00% (Unspecified)
board.cache_hierarchy.ruby_system.L2Cache_Controller.M_I.L1_PUTX_old            3      0.00%      0.00% (Unspecified)
board.cache_hierarchy.ruby_system.L2Cache_Controller.M_I.Mem_Ack       753611      0.00%      0.00% (Unspecified)
board.cache_hierarchy.ruby_system.L2Cache_Controller.MT_I.WB_Data           19      0.00%      0.00% (Unspecified)
board.cache_hierarchy.ruby_system.L2Cache_Controller.MT_I.Ack_all            1      0.00%      0.00% (Unspecified)
board.cache_hierarchy.ruby_system.L2Cache_Controller.MCT_I.L1_PUTX_old           13      0.00%      0.00% (Unspecified)
board.cache_hierarchy.ruby_system.L2Cache_Controller.MCT_I.WB_Data        62278      0.00%      0.00% (Unspecified)
board.cache_hierarchy.ruby_system.L2Cache_Controller.MCT_I.WB_Data_clean           14      0.00%      0.00% (Unspecified)
board.cache_hierarchy.ruby_system.L2Cache_Controller.MCT_I.Ack_all       128045      0.00%      0.00% (Unspecified)
board.cache_hierarchy.ruby_system.L2Cache_Controller.I_I.L1_GET_INSTR            2      0.00%      0.00% (Unspecified)
board.cache_hierarchy.ruby_system.L2Cache_Controller.I_I.Ack         3580      0.00%      0.00% (Unspecified)
board.cache_hierarchy.ruby_system.L2Cache_Controller.I_I.Ack_all         2889      0.00%      0.00% (Unspecified)
board.cache_hierarchy.ruby_system.L2Cache_Controller.S_I.Ack           89      0.00%      0.00% (Unspecified)
board.cache_hierarchy.ruby_system.L2Cache_Controller.S_I.Ack_all           54      0.00%      0.00% (Unspecified)
board.cache_hierarchy.ruby_system.L2Cache_Controller.ISS.L1_GETS            5      0.00%      0.00% (Unspecified)
board.cache_hierarchy.ruby_system.L2Cache_Controller.ISS.Mem_Data       252856      0.00%      0.00% (Unspecified)
board.cache_hierarchy.ruby_system.L2Cache_Controller.IS.L1_GET_INSTR         2053      0.00%      0.00% (Unspecified)
board.cache_hierarchy.ruby_system.L2Cache_Controller.IS.L1_GETS           22      0.00%      0.00% (Unspecified)
board.cache_hierarchy.ruby_system.L2Cache_Controller.IS.Mem_Data         3502      0.00%      0.00% (Unspecified)
board.cache_hierarchy.ruby_system.L2Cache_Controller.IM.L1_GETX            6      0.00%      0.00% (Unspecified)
board.cache_hierarchy.ruby_system.L2Cache_Controller.IM.Mem_Data       501349      0.00%      0.00% (Unspecified)
board.cache_hierarchy.ruby_system.L2Cache_Controller.SS_MB.L1_GETS            9      0.00%      0.00% (Unspecified)
board.cache_hierarchy.ruby_system.L2Cache_Controller.SS_MB.Exclusive_Unblock           25      0.00%      0.00% (Unspecified)
board.cache_hierarchy.ruby_system.L2Cache_Controller.MT_MB.L1_GETS            2      0.00%      0.00% (Unspecified)
board.cache_hierarchy.ruby_system.L2Cache_Controller.MT_MB.L1_GETX           22      0.00%      0.00% (Unspecified)
board.cache_hierarchy.ruby_system.L2Cache_Controller.MT_MB.Exclusive_Unblock       754677      0.00%      0.00% (Unspecified)
board.cache_hierarchy.ruby_system.L2Cache_Controller.MT_IIB.L1_GETS           30      0.00%      0.00% (Unspecified)
board.cache_hierarchy.ruby_system.L2Cache_Controller.MT_IIB.WB_Data           76      0.00%      0.00% (Unspecified)
board.cache_hierarchy.ruby_system.L2Cache_Controller.MT_IIB.WB_Data_clean           19      0.00%      0.00% (Unspecified)
board.cache_hierarchy.ruby_system.L2Cache_Controller.MT_IIB.Unblock            2      0.00%      0.00% (Unspecified)
board.cache_hierarchy.ruby_system.L2Cache_Controller.MT_IB.WB_Data            2      0.00%      0.00% (Unspecified)
board.cache_hierarchy.ruby_system.L2Cache_Controller.MT_SB.Unblock           95      0.00%      0.00% (Unspecified)
board.cache_hierarchy.ruby_system.RequestType.LD.latency_hist_seqr::bucket_size          256                       (Unspecified)
board.cache_hierarchy.ruby_system.RequestType.LD.latency_hist_seqr::max_bucket         2559                       (Unspecified)
board.cache_hierarchy.ruby_system.RequestType.LD.latency_hist_seqr::samples     24266744                       (Unspecified)
board.cache_hierarchy.ruby_system.RequestType.LD.latency_hist_seqr::mean     3.930283                       (Unspecified)
board.cache_hierarchy.ruby_system.RequestType.LD.latency_hist_seqr::gmean     1.059969                       (Unspecified)
board.cache_hierarchy.ruby_system.RequestType.LD.latency_hist_seqr::stdev    31.442799                       (Unspecified)
board.cache_hierarchy.ruby_system.RequestType.LD.latency_hist_seqr |    24205324     99.75%     99.75% |       48548      0.20%     99.95% |        9179      0.04%     99.98% |        2161      0.01%     99.99% |        1115      0.00%    100.00% |         416      0.00%    100.00% |           1      0.00%    100.00% |           0      0.00%    100.00% |           0      0.00%    100.00% |           0      0.00%    100.00% (Unspecified)
board.cache_hierarchy.ruby_system.RequestType.LD.latency_hist_seqr::total     24266744                       (Unspecified)
board.cache_hierarchy.ruby_system.RequestType.LD.hit_latency_hist_seqr::bucket_size            1                       (Unspecified)
board.cache_hierarchy.ruby_system.RequestType.LD.hit_latency_hist_seqr::max_bucket            9                       (Unspecified)
board.cache_hierarchy.ruby_system.RequestType.LD.hit_latency_hist_seqr::samples     24013240                       (Unspecified)
board.cache_hierarchy.ruby_system.RequestType.LD.hit_latency_hist_seqr::mean            1                       (Unspecified)
board.cache_hierarchy.ruby_system.RequestType.LD.hit_latency_hist_seqr::gmean            1                       (Unspecified)
board.cache_hierarchy.ruby_system.RequestType.LD.hit_latency_hist_seqr |           0      0.00%      0.00% |    24013240    100.00%    100.00% |           0      0.00%    100.00% |           0      0.00%    100.00% |           0      0.00%    100.00% |           0      0.00%    100.00% |           0      0.00%    100.00% |           0      0.00%    100.00% |           0      0.00%    100.00% |           0      0.00%    100.00% (Unspecified)
board.cache_hierarchy.ruby_system.RequestType.LD.hit_latency_hist_seqr::total     24013240                       (Unspecified)
board.cache_hierarchy.ruby_system.RequestType.LD.miss_latency_hist_seqr::bucket_size          256                       (Unspecified)
board.cache_hierarchy.ruby_system.RequestType.LD.miss_latency_hist_seqr::max_bucket         2559                       (Unspecified)
board.cache_hierarchy.ruby_system.RequestType.LD.miss_latency_hist_seqr::samples       253504                       (Unspecified)
board.cache_hierarchy.ruby_system.RequestType.LD.miss_latency_hist_seqr::mean   281.502177                       (Unspecified)
board.cache_hierarchy.ruby_system.RequestType.LD.miss_latency_hist_seqr::gmean   263.744570                       (Unspecified)
board.cache_hierarchy.ruby_system.RequestType.LD.miss_latency_hist_seqr::stdev   129.534994                       (Unspecified)
board.cache_hierarchy.ruby_system.RequestType.LD.miss_latency_hist_seqr |      192084     75.77%     75.77% |       48548     19.15%     94.92% |        9179      3.62%     98.54% |        2161      0.85%     99.40% |        1115      0.44%     99.84% |         416      0.16%    100.00% |           1      0.00%    100.00% |           0      0.00%    100.00% |           0      0.00%    100.00% |           0      0.00%    100.00% (Unspecified)
board.cache_hierarchy.ruby_system.RequestType.LD.miss_latency_hist_seqr::total       253504                       (Unspecified)
board.cache_hierarchy.ruby_system.RequestType.ST.latency_hist_seqr::bucket_size          256                       (Unspecified)
board.cache_hierarchy.ruby_system.RequestType.ST.latency_hist_seqr::max_bucket         2559                       (Unspecified)
board.cache_hierarchy.ruby_system.RequestType.ST.latency_hist_seqr::samples      7525164                       (Unspecified)
board.cache_hierarchy.ruby_system.RequestType.ST.latency_hist_seqr::mean    14.972052                       (Unspecified)
board.cache_hierarchy.ruby_system.RequestType.ST.latency_hist_seqr::gmean     1.418680                       (Unspecified)
board.cache_hierarchy.ruby_system.RequestType.ST.latency_hist_seqr::stdev    62.207929                       (Unspecified)
board.cache_hierarchy.ruby_system.RequestType.ST.latency_hist_seqr |     7479559     99.39%     99.39% |       14897      0.20%     99.59% |       24480      0.33%     99.92% |        5539      0.07%     99.99% |         514      0.01%    100.00% |         148      0.00%    100.00% |          27      0.00%    100.00% |           0      0.00%    100.00% |           0      0.00%    100.00% |           0      0.00%    100.00% (Unspecified)
board.cache_hierarchy.ruby_system.RequestType.ST.latency_hist_seqr::total      7525164                       (Unspecified)
board.cache_hierarchy.ruby_system.RequestType.ST.hit_latency_hist_seqr::bucket_size            1                       (Unspecified)
board.cache_hierarchy.ruby_system.RequestType.ST.hit_latency_hist_seqr::max_bucket            9                       (Unspecified)
board.cache_hierarchy.ruby_system.RequestType.ST.hit_latency_hist_seqr::samples      7024237                       (Unspecified)
board.cache_hierarchy.ruby_system.RequestType.ST.hit_latency_hist_seqr::mean     1.000005                       (Unspecified)
board.cache_hierarchy.ruby_system.RequestType.ST.hit_latency_hist_seqr::gmean     1.000004                       (Unspecified)
board.cache_hierarchy.ruby_system.RequestType.ST.hit_latency_hist_seqr::stdev     0.002295                       (Unspecified)
board.cache_hierarchy.ruby_system.RequestType.ST.hit_latency_hist_seqr |           0      0.00%      0.00% |     7024200    100.00%    100.00% |          37      0.00%    100.00% |           0      0.00%    100.00% |           0      0.00%    100.00% |           0      0.00%    100.00% |           0      0.00%    100.00% |           0      0.00%    100.00% |           0      0.00%    100.00% |           0      0.00%    100.00% (Unspecified)
board.cache_hierarchy.ruby_system.RequestType.ST.hit_latency_hist_seqr::total      7024237                       (Unspecified)
board.cache_hierarchy.ruby_system.RequestType.ST.miss_latency_hist_seqr::bucket_size          256                       (Unspecified)
board.cache_hierarchy.ruby_system.RequestType.ST.miss_latency_hist_seqr::max_bucket         2559                       (Unspecified)
board.cache_hierarchy.ruby_system.RequestType.ST.miss_latency_hist_seqr::samples       500927                       (Unspecified)
board.cache_hierarchy.ruby_system.RequestType.ST.miss_latency_hist_seqr::mean   210.894753                       (Unspecified)
board.cache_hierarchy.ruby_system.RequestType.ST.miss_latency_hist_seqr::gmean   191.274667                       (Unspecified)
board.cache_hierarchy.ruby_system.RequestType.ST.miss_latency_hist_seqr::stdev   130.427207                       (Unspecified)
board.cache_hierarchy.ruby_system.RequestType.ST.miss_latency_hist_seqr |      455322     90.90%     90.90% |       14897      2.97%     93.87% |       24480      4.89%     98.76% |        5539      1.11%     99.86% |         514      0.10%     99.97% |         148      0.03%     99.99% |          27      0.01%    100.00% |           0      0.00%    100.00% |           0      0.00%    100.00% |           0      0.00%    100.00% (Unspecified)
board.cache_hierarchy.ruby_system.RequestType.ST.miss_latency_hist_seqr::total       500927                       (Unspecified)
board.cache_hierarchy.ruby_system.RequestType.IFETCH.latency_hist_seqr::bucket_size          128                       (Unspecified)
board.cache_hierarchy.ruby_system.RequestType.IFETCH.latency_hist_seqr::max_bucket         1279                       (Unspecified)
board.cache_hierarchy.ruby_system.RequestType.IFETCH.latency_hist_seqr::samples     13316884                       (Unspecified)
board.cache_hierarchy.ruby_system.RequestType.IFETCH.latency_hist_seqr::mean     1.081270                       (Unspecified)
board.cache_hierarchy.ruby_system.RequestType.IFETCH.latency_hist_seqr::gmean     1.002523                       (Unspecified)
board.cache_hierarchy.ruby_system.RequestType.IFETCH.latency_hist_seqr::stdev     4.529790                       (Unspecified)
board.cache_hierarchy.ruby_system.RequestType.IFETCH.latency_hist_seqr |    13311981     99.96%     99.96% |        4216      0.03%     99.99% |         437      0.00%    100.00% |         125      0.00%    100.00% |          64      0.00%    100.00% |           8      0.00%    100.00% |           9      0.00%    100.00% |          32      0.00%    100.00% |          12      0.00%    100.00% |           0      0.00%    100.00% (Unspecified)
board.cache_hierarchy.ruby_system.RequestType.IFETCH.latency_hist_seqr::total     13316884                       (Unspecified)
board.cache_hierarchy.ruby_system.RequestType.IFETCH.hit_latency_hist_seqr::bucket_size            1                       (Unspecified)
board.cache_hierarchy.ruby_system.RequestType.IFETCH.hit_latency_hist_seqr::max_bucket            9                       (Unspecified)
board.cache_hierarchy.ruby_system.RequestType.IFETCH.hit_latency_hist_seqr::samples     13309553                       (Unspecified)
board.cache_hierarchy.ruby_system.RequestType.IFETCH.hit_latency_hist_seqr::mean            1                       (Unspecified)
board.cache_hierarchy.ruby_system.RequestType.IFETCH.hit_latency_hist_seqr::gmean            1                       (Unspecified)
board.cache_hierarchy.ruby_system.RequestType.IFETCH.hit_latency_hist_seqr |           0      0.00%      0.00% |    13309553    100.00%    100.00% |           0      0.00%    100.00% |           0      0.00%    100.00% |           0      0.00%    100.00% |           0      0.00%    100.00% |           0      0.00%    100.00% |           0      0.00%    100.00% |           0      0.00%    100.00% |           0      0.00%    100.00% (Unspecified)
board.cache_hierarchy.ruby_system.RequestType.IFETCH.hit_latency_hist_seqr::total     13309553                       (Unspecified)
board.cache_hierarchy.ruby_system.RequestType.IFETCH.miss_latency_hist_seqr::bucket_size          128                       (Unspecified)
board.cache_hierarchy.ruby_system.RequestType.IFETCH.miss_latency_hist_seqr::max_bucket         1279                       (Unspecified)
board.cache_hierarchy.ruby_system.RequestType.IFETCH.miss_latency_hist_seqr::samples         7331                       (Unspecified)
board.cache_hierarchy.ruby_system.RequestType.IFETCH.miss_latency_hist_seqr::mean   148.628018                       (Unspecified)
board.cache_hierarchy.ruby_system.RequestType.IFETCH.miss_latency_hist_seqr::gmean    97.251926                       (Unspecified)
board.cache_hierarchy.ruby_system.RequestType.IFETCH.miss_latency_hist_seqr::stdev   124.471598                       (Unspecified)
board.cache_hierarchy.ruby_system.RequestType.IFETCH.miss_latency_hist_seqr |        2428     33.12%     33.12% |        4216     57.51%     90.63% |         437      5.96%     96.59% |         125      1.71%     98.29% |          64      0.87%     99.17% |           8      0.11%     99.28% |           9      0.12%     99.40% |          32      0.44%     99.84% |          12      0.16%    100.00% |           0      0.00%    100.00% (Unspecified)
board.cache_hierarchy.ruby_system.RequestType.IFETCH.miss_latency_hist_seqr::total         7331                       (Unspecified)
board.cache_hierarchy.ruby_system.RequestType.RMW_Read.latency_hist_seqr::bucket_size          128                       (Unspecified)
board.cache_hierarchy.ruby_system.RequestType.RMW_Read.latency_hist_seqr::max_bucket         1279                       (Unspecified)
board.cache_hierarchy.ruby_system.RequestType.RMW_Read.latency_hist_seqr::samples      4002221                       (Unspecified)
board.cache_hierarchy.ruby_system.RequestType.RMW_Read.latency_hist_seqr::mean     1.015935                       (Unspecified)
board.cache_hierarchy.ruby_system.RequestType.RMW_Read.latency_hist_seqr::gmean     1.000602                       (Unspecified)
board.cache_hierarchy.ruby_system.RequestType.RMW_Read.latency_hist_seqr::stdev     1.723962                       (Unspecified)
board.cache_hierarchy.ruby_system.RequestType.RMW_Read.latency_hist_seqr |     4001968     99.99%     99.99% |         244      0.01%    100.00% |           1      0.00%    100.00% |           4      0.00%    100.00% |           0      0.00%    100.00% |           1      0.00%    100.00% |           1      0.00%    100.00% |           2      0.00%    100.00% |           0      0.00%    100.00% |           0      0.00%    100.00% (Unspecified)
board.cache_hierarchy.ruby_system.RequestType.RMW_Read.latency_hist_seqr::total      4002221                       (Unspecified)
board.cache_hierarchy.ruby_system.RequestType.RMW_Read.hit_latency_hist_seqr::bucket_size            1                       (Unspecified)
board.cache_hierarchy.ruby_system.RequestType.RMW_Read.hit_latency_hist_seqr::max_bucket            9                       (Unspecified)
board.cache_hierarchy.ruby_system.RequestType.RMW_Read.hit_latency_hist_seqr::samples      4001709                       (Unspecified)
board.cache_hierarchy.ruby_system.RequestType.RMW_Read.hit_latency_hist_seqr::mean            1                       (Unspecified)
board.cache_hierarchy.ruby_system.RequestType.RMW_Read.hit_latency_hist_seqr::gmean            1                       (Unspecified)
board.cache_hierarchy.ruby_system.RequestType.RMW_Read.hit_latency_hist_seqr |           0      0.00%      0.00% |     4001709    100.00%    100.00% |           0      0.00%    100.00% |           0      0.00%    100.00% |           0      0.00%    100.00% |           0      0.00%    100.00% |           0      0.00%    100.00% |           0      0.00%    100.00% |           0      0.00%    100.00% |           0      0.00%    100.00% (Unspecified)
board.cache_hierarchy.ruby_system.RequestType.RMW_Read.hit_latency_hist_seqr::total      4001709                       (Unspecified)
board.cache_hierarchy.ruby_system.RequestType.RMW_Read.miss_latency_hist_seqr::bucket_size          128                       (Unspecified)
board.cache_hierarchy.ruby_system.RequestType.RMW_Read.miss_latency_hist_seqr::max_bucket         1279                       (Unspecified)
board.cache_hierarchy.ruby_system.RequestType.RMW_Read.miss_latency_hist_seqr::samples          512                       (Unspecified)
board.cache_hierarchy.ruby_system.RequestType.RMW_Read.miss_latency_hist_seqr::mean   125.562500                       (Unspecified)
board.cache_hierarchy.ruby_system.RequestType.RMW_Read.miss_latency_hist_seqr::gmean   110.067956                       (Unspecified)
board.cache_hierarchy.ruby_system.RequestType.RMW_Read.miss_latency_hist_seqr::stdev    87.938935                       (Unspecified)
board.cache_hierarchy.ruby_system.RequestType.RMW_Read.miss_latency_hist_seqr |         259     50.59%     50.59% |         244     47.66%     98.24% |           1      0.20%     98.44% |           4      0.78%     99.22% |           0      0.00%     99.22% |           1      0.20%     99.41% |           1      0.20%     99.61% |           2      0.39%    100.00% |           0      0.00%    100.00% |           0      0.00%    100.00% (Unspecified)
board.cache_hierarchy.ruby_system.RequestType.RMW_Read.miss_latency_hist_seqr::total          512                       (Unspecified)
board.cache_hierarchy.ruby_system.RequestType.Locked_RMW_Read.latency_hist_seqr::bucket_size           64                       (Unspecified)
board.cache_hierarchy.ruby_system.RequestType.Locked_RMW_Read.latency_hist_seqr::max_bucket          639                       (Unspecified)
board.cache_hierarchy.ruby_system.RequestType.Locked_RMW_Read.latency_hist_seqr::samples          209                       (Unspecified)
board.cache_hierarchy.ruby_system.RequestType.Locked_RMW_Read.latency_hist_seqr::mean    22.995215                       (Unspecified)
board.cache_hierarchy.ruby_system.RequestType.Locked_RMW_Read.latency_hist_seqr::gmean     2.072951                       (Unspecified)
board.cache_hierarchy.ruby_system.RequestType.Locked_RMW_Read.latency_hist_seqr::stdev    76.174490                       (Unspecified)
board.cache_hierarchy.ruby_system.RequestType.Locked_RMW_Read.latency_hist_seqr |         195     93.30%     93.30% |           0      0.00%     93.30% |           2      0.96%     94.26% |           5      2.39%     96.65% |           1      0.48%     97.13% |           3      1.44%     98.56% |           3      1.44%    100.00% |           0      0.00%    100.00% |           0      0.00%    100.00% |           0      0.00%    100.00% (Unspecified)
board.cache_hierarchy.ruby_system.RequestType.Locked_RMW_Read.latency_hist_seqr::total          209                       (Unspecified)
board.cache_hierarchy.ruby_system.RequestType.Locked_RMW_Read.hit_latency_hist_seqr::bucket_size            1                       (Unspecified)
board.cache_hierarchy.ruby_system.RequestType.Locked_RMW_Read.hit_latency_hist_seqr::max_bucket            9                       (Unspecified)
board.cache_hierarchy.ruby_system.RequestType.Locked_RMW_Read.hit_latency_hist_seqr::samples          172                       (Unspecified)
board.cache_hierarchy.ruby_system.RequestType.Locked_RMW_Read.hit_latency_hist_seqr::mean            1                       (Unspecified)
board.cache_hierarchy.ruby_system.RequestType.Locked_RMW_Read.hit_latency_hist_seqr::gmean            1                       (Unspecified)
board.cache_hierarchy.ruby_system.RequestType.Locked_RMW_Read.hit_latency_hist_seqr |           0      0.00%      0.00% |         172    100.00%    100.00% |           0      0.00%    100.00% |           0      0.00%    100.00% |           0      0.00%    100.00% |           0      0.00%    100.00% |           0      0.00%    100.00% |           0      0.00%    100.00% |           0      0.00%    100.00% |           0      0.00%    100.00% (Unspecified)
board.cache_hierarchy.ruby_system.RequestType.Locked_RMW_Read.hit_latency_hist_seqr::total          172                       (Unspecified)
board.cache_hierarchy.ruby_system.RequestType.Locked_RMW_Read.miss_latency_hist_seqr::bucket_size           64                       (Unspecified)
board.cache_hierarchy.ruby_system.RequestType.Locked_RMW_Read.miss_latency_hist_seqr::max_bucket          639                       (Unspecified)
board.cache_hierarchy.ruby_system.RequestType.Locked_RMW_Read.miss_latency_hist_seqr::samples           37                       (Unspecified)
board.cache_hierarchy.ruby_system.RequestType.Locked_RMW_Read.miss_latency_hist_seqr::mean   125.243243                       (Unspecified)
board.cache_hierarchy.ruby_system.RequestType.Locked_RMW_Read.miss_latency_hist_seqr::gmean    61.418715                       (Unspecified)
board.cache_hierarchy.ruby_system.RequestType.Locked_RMW_Read.miss_latency_hist_seqr::stdev   143.071157                       (Unspecified)
board.cache_hierarchy.ruby_system.RequestType.Locked_RMW_Read.miss_latency_hist_seqr |          23     62.16%     62.16% |           0      0.00%     62.16% |           2      5.41%     67.57% |           5     13.51%     81.08% |           1      2.70%     83.78% |           3      8.11%     91.89% |           3      8.11%    100.00% |           0      0.00%    100.00% |           0      0.00%    100.00% |           0      0.00%    100.00% (Unspecified)
board.cache_hierarchy.ruby_system.RequestType.Locked_RMW_Read.miss_latency_hist_seqr::total           37                       (Unspecified)
board.cache_hierarchy.ruby_system.RequestType.Locked_RMW_Write.latency_hist_seqr::bucket_size            1                       (Unspecified)
board.cache_hierarchy.ruby_system.RequestType.Locked_RMW_Write.latency_hist_seqr::max_bucket            9                       (Unspecified)
board.cache_hierarchy.ruby_system.RequestType.Locked_RMW_Write.latency_hist_seqr::samples          209                       (Unspecified)
board.cache_hierarchy.ruby_system.RequestType.Locked_RMW_Write.latency_hist_seqr::mean            1                       (Unspecified)
board.cache_hierarchy.ruby_system.RequestType.Locked_RMW_Write.latency_hist_seqr::gmean            1                       (Unspecified)
board.cache_hierarchy.ruby_system.RequestType.Locked_RMW_Write.latency_hist_seqr |           0      0.00%      0.00% |         209    100.00%    100.00% |           0      0.00%    100.00% |           0      0.00%    100.00% |           0      0.00%    100.00% |           0      0.00%    100.00% |           0      0.00%    100.00% |           0      0.00%    100.00% |           0      0.00%    100.00% |           0      0.00%    100.00% (Unspecified)
board.cache_hierarchy.ruby_system.RequestType.Locked_RMW_Write.latency_hist_seqr::total          209                       (Unspecified)
board.cache_hierarchy.ruby_system.RequestType.Locked_RMW_Write.hit_latency_hist_seqr::bucket_size            1                       (Unspecified)
board.cache_hierarchy.ruby_system.RequestType.Locked_RMW_Write.hit_latency_hist_seqr::max_bucket            9                       (Unspecified)
board.cache_hierarchy.ruby_system.RequestType.Locked_RMW_Write.hit_latency_hist_seqr::samples          209                       (Unspecified)
board.cache_hierarchy.ruby_system.RequestType.Locked_RMW_Write.hit_latency_hist_seqr::mean            1                       (Unspecified)
board.cache_hierarchy.ruby_system.RequestType.Locked_RMW_Write.hit_latency_hist_seqr::gmean            1                       (Unspecified)
board.cache_hierarchy.ruby_system.RequestType.Locked_RMW_Write.hit_latency_hist_seqr |           0      0.00%      0.00% |         209    100.00%    100.00% |           0      0.00%    100.00% |           0      0.00%    100.00% |           0      0.00%    100.00% |           0      0.00%    100.00% |           0      0.00%    100.00% |           0      0.00%    100.00% |           0      0.00%    100.00% |           0      0.00%    100.00% (Unspecified)
board.cache_hierarchy.ruby_system.RequestType.Locked_RMW_Write.hit_latency_hist_seqr::total          209                       (Unspecified)
board.cache_hierarchy.ruby_system.directory_controllers.power_state.pwrStateResidencyTicks::UNDEFINED  53901994383                       # Cumulative time (in ticks) in various power states (Tick)
board.cache_hierarchy.ruby_system.directory_controllers.requestToDir.m_msg_count       757707                       # Number of messages passed the buffer (Count)
board.cache_hierarchy.ruby_system.directory_controllers.requestToDir.m_buf_msgs     0.004681                       # Average number of messages in buffer ((Count/Tick))
board.cache_hierarchy.ruby_system.directory_controllers.requestToMemory.m_msg_count      1258340                       # Number of messages passed the buffer (Count)
board.cache_hierarchy.ruby_system.directory_controllers.requestToMemory.m_buf_msgs     0.007788                       # Average number of messages in buffer ((Count/Tick))
board.cache_hierarchy.ruby_system.directory_controllers.requestToMemory.m_stall_time       774558                       # Total number of ticks messages were stalled in this buffer (Tick)
board.cache_hierarchy.ruby_system.directory_controllers.requestToMemory.m_avg_stall_time     0.615540                       # Average stall ticks per message ((Tick/Count))
board.cache_hierarchy.ruby_system.directory_controllers.responseFromDir.m_msg_count      1511318                       # Number of messages passed the buffer (Count)
board.cache_hierarchy.ruby_system.directory_controllers.responseFromDir.m_buf_msgs     0.009337                       # Average number of messages in buffer ((Count/Tick))
board.cache_hierarchy.ruby_system.directory_controllers.responseFromMemory.m_msg_count      1258340                       # Number of messages passed the buffer (Count)
board.cache_hierarchy.ruby_system.directory_controllers.responseFromMemory.m_buf_msgs     0.012822                       # Average number of messages in buffer ((Count/Tick))
board.cache_hierarchy.ruby_system.directory_controllers.responseToDir.m_msg_count       753611                       # Number of messages passed the buffer (Count)
board.cache_hierarchy.ruby_system.directory_controllers.responseToDir.m_buf_msgs     0.004656                       # Average number of messages in buffer ((Count/Tick))
board.cache_hierarchy.ruby_system.l1_controllers0.fullyBusyCycles          113                       # cycles for which number of transistions == max transitions (Unspecified)
board.cache_hierarchy.ruby_system.l1_controllers0.delayHistogram::samples       855893                       # delay_histogram (Unspecified)
board.cache_hierarchy.ruby_system.l1_controllers0.delayHistogram::mean     0.007192                       # delay_histogram (Unspecified)
board.cache_hierarchy.ruby_system.l1_controllers0.delayHistogram::stdev     0.202600                       # delay_histogram (Unspecified)
board.cache_hierarchy.ruby_system.l1_controllers0.delayHistogram::0-7       855727     99.98%     99.98% # delay_histogram (Unspecified)
board.cache_hierarchy.ruby_system.l1_controllers0.delayHistogram::8-15          160      0.02%    100.00% # delay_histogram (Unspecified)
board.cache_hierarchy.ruby_system.l1_controllers0.delayHistogram::16-23            2      0.00%    100.00% # delay_histogram (Unspecified)
board.cache_hierarchy.ruby_system.l1_controllers0.delayHistogram::24-31            1      0.00%    100.00% # delay_histogram (Unspecified)
board.cache_hierarchy.ruby_system.l1_controllers0.delayHistogram::40-47            1      0.00%    100.00% # delay_histogram (Unspecified)
board.cache_hierarchy.ruby_system.l1_controllers0.delayHistogram::48-55            2      0.00%    100.00% # delay_histogram (Unspecified)
board.cache_hierarchy.ruby_system.l1_controllers0.delayHistogram::total       855893                       # delay_histogram (Unspecified)
board.cache_hierarchy.ruby_system.l1_controllers0.L1Dcache.m_demand_hits     24764884                       # Number of cache demand hits (Unspecified)
board.cache_hierarchy.ruby_system.l1_controllers0.L1Dcache.m_demand_misses       424996                       # Number of cache demand misses (Unspecified)
board.cache_hierarchy.ruby_system.l1_controllers0.L1Dcache.m_demand_accesses     25189880                       # Number of cache demand accesses (Unspecified)
board.cache_hierarchy.ruby_system.l1_controllers0.L1Icache.m_demand_hits      9578611                       # Number of cache demand hits (Unspecified)
board.cache_hierarchy.ruby_system.l1_controllers0.L1Icache.m_demand_misses         3575                       # Number of cache demand misses (Unspecified)
board.cache_hierarchy.ruby_system.l1_controllers0.L1Icache.m_demand_accesses      9582186                       # Number of cache demand accesses (Unspecified)
board.cache_hierarchy.ruby_system.l1_controllers0.mandatoryQueue.m_msg_count     34772066                       # Number of messages passed the buffer (Count)
board.cache_hierarchy.ruby_system.l1_controllers0.mandatoryQueue.m_buf_msgs     0.214818                       # Average number of messages in buffer ((Count/Tick))
board.cache_hierarchy.ruby_system.l1_controllers0.mandatoryQueue.m_stall_time          333                       # Total number of ticks messages were stalled in this buffer (Tick)
board.cache_hierarchy.ruby_system.l1_controllers0.mandatoryQueue.m_avg_stall_time     0.000010                       # Average stall ticks per message ((Tick/Count))
board.cache_hierarchy.ruby_system.l1_controllers0.power_state.pwrStateResidencyTicks::UNDEFINED  53901994383                       # Cumulative time (in ticks) in various power states (Tick)
board.cache_hierarchy.ruby_system.l1_controllers0.prefetcher.RubyPrefetcher.numMissObserved            0                       # Number of misses observed (Unspecified)
board.cache_hierarchy.ruby_system.l1_controllers0.prefetcher.RubyPrefetcher.numAllocatedStreams            0                       # Number of streams allocated for prefetching (Unspecified)
board.cache_hierarchy.ruby_system.l1_controllers0.prefetcher.RubyPrefetcher.numPrefetchRequested            0                       # Number of prefetch requests made (Unspecified)
board.cache_hierarchy.ruby_system.l1_controllers0.prefetcher.RubyPrefetcher.numHits            0                       # Number of prefetched blocks accessed (for the first time) (Unspecified)
board.cache_hierarchy.ruby_system.l1_controllers0.prefetcher.RubyPrefetcher.numPartialHits            0                       # Number of misses observed for a block being prefetched (Unspecified)
board.cache_hierarchy.ruby_system.l1_controllers0.prefetcher.RubyPrefetcher.numPagesCrossed            0                       # Number of prefetches across pages (Unspecified)
board.cache_hierarchy.ruby_system.l1_controllers0.prefetcher.RubyPrefetcher.numMissedPrefetchedBlocks            0                       # Number of misses for blocks that were prefetched, yet missed (Unspecified)
board.cache_hierarchy.ruby_system.l1_controllers0.requestFromL1Cache.m_msg_count       818845                       # Number of messages passed the buffer (Count)
board.cache_hierarchy.ruby_system.l1_controllers0.requestFromL1Cache.m_buf_msgs     0.010117                       # Average number of messages in buffer ((Count/Tick))
board.cache_hierarchy.ruby_system.l1_controllers0.requestToL1Cache.m_msg_count        37034                       # Number of messages passed the buffer (Count)
board.cache_hierarchy.ruby_system.l1_controllers0.requestToL1Cache.m_buf_msgs     0.000229                       # Average number of messages in buffer ((Count/Tick))
board.cache_hierarchy.ruby_system.l1_controllers0.responseFromL1Cache.m_msg_count        37113                       # Number of messages passed the buffer (Count)
board.cache_hierarchy.ruby_system.l1_controllers0.responseFromL1Cache.m_buf_msgs     0.000459                       # Average number of messages in buffer ((Count/Tick))
board.cache_hierarchy.ruby_system.l1_controllers0.responseToL1Cache.m_msg_count       818859                       # Number of messages passed the buffer (Count)
board.cache_hierarchy.ruby_system.l1_controllers0.responseToL1Cache.m_buf_msgs     0.005059                       # Average number of messages in buffer ((Count/Tick))
board.cache_hierarchy.ruby_system.l1_controllers0.sequencer.power_state.pwrStateResidencyTicks::UNDEFINED  53901994383                       # Cumulative time (in ticks) in various power states (Tick)
board.cache_hierarchy.ruby_system.l1_controllers0.unblockFromL1Cache.m_msg_count       424988                       # Number of messages passed the buffer (Count)
board.cache_hierarchy.ruby_system.l1_controllers0.unblockFromL1Cache.m_buf_msgs     0.002626                       # Average number of messages in buffer ((Count/Tick))
board.cache_hierarchy.ruby_system.l1_controllers1.fullyBusyCycles           75                       # cycles for which number of transistions == max transitions (Unspecified)
board.cache_hierarchy.ruby_system.l1_controllers1.delayHistogram::samples        95033                       # delay_histogram (Unspecified)
board.cache_hierarchy.ruby_system.l1_controllers1.delayHistogram::mean     0.094851                       # delay_histogram (Unspecified)
board.cache_hierarchy.ruby_system.l1_controllers1.delayHistogram::stdev     0.696680                       # delay_histogram (Unspecified)
board.cache_hierarchy.ruby_system.l1_controllers1.delayHistogram::0-7        94745     99.70%     99.70% # delay_histogram (Unspecified)
board.cache_hierarchy.ruby_system.l1_controllers1.delayHistogram::8-15          283      0.30%     99.99% # delay_histogram (Unspecified)
board.cache_hierarchy.ruby_system.l1_controllers1.delayHistogram::16-23            2      0.00%    100.00% # delay_histogram (Unspecified)
board.cache_hierarchy.ruby_system.l1_controllers1.delayHistogram::24-31            2      0.00%    100.00% # delay_histogram (Unspecified)
board.cache_hierarchy.ruby_system.l1_controllers1.delayHistogram::40-47            1      0.00%    100.00% # delay_histogram (Unspecified)
board.cache_hierarchy.ruby_system.l1_controllers1.delayHistogram::total        95033                       # delay_histogram (Unspecified)
board.cache_hierarchy.ruby_system.l1_controllers1.L1Dcache.m_demand_hits      1473376                       # Number of cache demand hits (Unspecified)
board.cache_hierarchy.ruby_system.l1_controllers1.L1Dcache.m_demand_misses        47158                       # Number of cache demand misses (Unspecified)
board.cache_hierarchy.ruby_system.l1_controllers1.L1Dcache.m_demand_accesses      1520534                       # Number of cache demand accesses (Unspecified)
board.cache_hierarchy.ruby_system.l1_controllers1.L1Icache.m_demand_hits       540933                       # Number of cache demand hits (Unspecified)
board.cache_hierarchy.ruby_system.l1_controllers1.L1Icache.m_demand_misses          534                       # Number of cache demand misses (Unspecified)
board.cache_hierarchy.ruby_system.l1_controllers1.L1Icache.m_demand_accesses       541467                       # Number of cache demand accesses (Unspecified)
board.cache_hierarchy.ruby_system.l1_controllers1.mandatoryQueue.m_msg_count      2062001                       # Number of messages passed the buffer (Count)
board.cache_hierarchy.ruby_system.l1_controllers1.mandatoryQueue.m_buf_msgs     0.012739                       # Average number of messages in buffer ((Count/Tick))
board.cache_hierarchy.ruby_system.l1_controllers1.power_state.pwrStateResidencyTicks::UNDEFINED  53901994383                       # Cumulative time (in ticks) in various power states (Tick)
board.cache_hierarchy.ruby_system.l1_controllers1.prefetcher.RubyPrefetcher.numMissObserved            0                       # Number of misses observed (Unspecified)
board.cache_hierarchy.ruby_system.l1_controllers1.prefetcher.RubyPrefetcher.numAllocatedStreams            0                       # Number of streams allocated for prefetching (Unspecified)
board.cache_hierarchy.ruby_system.l1_controllers1.prefetcher.RubyPrefetcher.numPrefetchRequested            0                       # Number of prefetch requests made (Unspecified)
board.cache_hierarchy.ruby_system.l1_controllers1.prefetcher.RubyPrefetcher.numHits            0                       # Number of prefetched blocks accessed (for the first time) (Unspecified)
board.cache_hierarchy.ruby_system.l1_controllers1.prefetcher.RubyPrefetcher.numPartialHits            0                       # Number of misses observed for a block being prefetched (Unspecified)
board.cache_hierarchy.ruby_system.l1_controllers1.prefetcher.RubyPrefetcher.numPagesCrossed            0                       # Number of prefetches across pages (Unspecified)
[...]
board.processor.cores7.core.commitStats0.cpi     6.764529                       # CPI: cycles per instruction (thread level) ((Cycle/Count))
board.processor.cores7.core.commitStats0.ipc     0.147830                       # IPC: instructions per cycle (thread level) ((Count/Cycle))
board.processor.cores7.core.commitStats0.numMemRefs            0                       # Number of memory references committed (Count)
board.processor.cores7.core.commitStats0.numFpInsts            0                       # Number of float instructions (Count)
board.processor.cores7.core.commitStats0.numIntInsts            0                       # Number of integer instructions (Count)
board.processor.cores7.core.commitStats0.numLoadInsts            0                       # Number of load instructions (Count)
board.processor.cores7.core.commitStats0.numStoreInsts            0                       # Number of store instructions (Count)
board.processor.cores7.core.commitStats0.numVecInsts            0                       # Number of vector instructions (Count)
board.processor.cores7.core.commitStats0.committedInstType::No_OpClass           41      0.00%      0.00% # Class of committed instruction. (Count)
board.processor.cores7.core.commitStats0.committedInstType::IntAlu      1674776     43.89%     43.89% # Class of committed instruction. (Count)
board.processor.cores7.core.commitStats0.committedInstType::IntMult            4      0.00%     43.89% # Class of committed instruction. (Count)
board.processor.cores7.core.commitStats0.committedInstType::IntDiv           22      0.00%     43.89% # Class of committed instruction. (Count)
board.processor.cores7.core.commitStats0.committedInstType::FloatAdd       250004      6.55%     50.44% # Class of committed instruction. (Count)
board.processor.cores7.core.commitStats0.committedInstType::FloatCmp            0      0.00%     50.44% # Class of committed instruction. (Count)
board.processor.cores7.core.commitStats0.committedInstType::FloatCvt            0      0.00%     50.44% # Class of committed instruction. (Count)
board.processor.cores7.core.commitStats0.committedInstType::FloatMult            0      0.00%     50.44% # Class of committed instruction. (Count)
board.processor.cores7.core.commitStats0.committedInstType::FloatMultAcc            0      0.00%     50.44% # Class of committed instruction. (Count)
board.processor.cores7.core.commitStats0.committedInstType::FloatDiv            0      0.00%     50.44% # Class of committed instruction. (Count)
board.processor.cores7.core.commitStats0.committedInstType::FloatMisc            0      0.00%     50.44% # Class of committed instruction. (Count)
board.processor.cores7.core.commitStats0.committedInstType::FloatSqrt            0      0.00%     50.44% # Class of committed instruction. (Count)
board.processor.cores7.core.commitStats0.committedInstType::SimdAdd            0      0.00%     50.44% # Class of committed instruction. (Count)
board.processor.cores7.core.commitStats0.committedInstType::SimdAddAcc            0      0.00%     50.44% # Class of committed instruction. (Count)
board.processor.cores7.core.commitStats0.committedInstType::SimdAlu           16      0.00%     50.44% # Class of committed instruction. (Count)
board.processor.cores7.core.commitStats0.committedInstType::SimdCmp            0      0.00%     50.44% # Class of committed instruction. (Count)
board.processor.cores7.core.commitStats0.committedInstType::SimdCvt           20      0.00%     50.44% # Class of committed instruction. (Count)
board.processor.cores7.core.commitStats0.committedInstType::SimdMisc           25      0.00%     50.44% # Class of committed instruction. (Count)
board.processor.cores7.core.commitStats0.committedInstType::SimdMult            0      0.00%     50.44% # Class of committed instruction. (Count)
board.processor.cores7.core.commitStats0.committedInstType::SimdMultAcc            0      0.00%     50.44% # Class of committed instruction. (Count)
board.processor.cores7.core.commitStats0.committedInstType::SimdMatMultAcc            0      0.00%     50.44% # Class of committed instruction. (Count)
board.processor.cores7.core.commitStats0.committedInstType::SimdShift            0      0.00%     50.44% # Class of committed instruction. (Count)
board.processor.cores7.core.commitStats0.committedInstType::SimdShiftAcc            0      0.00%     50.44% # Class of committed instruction. (Count)
board.processor.cores7.core.commitStats0.committedInstType::SimdDiv            0      0.00%     50.44% # Class of committed instruction. (Count)
board.processor.cores7.core.commitStats0.committedInstType::SimdSqrt            0      0.00%     50.44% # Class of committed instruction. (Count)
board.processor.cores7.core.commitStats0.committedInstType::SimdFloatAdd       125000      3.28%     53.72% # Class of committed instruction. (Count)
board.processor.cores7.core.commitStats0.committedInstType::SimdFloatAlu            0      0.00%     53.72% # Class of committed instruction. (Count)
board.processor.cores7.core.commitStats0.committedInstType::SimdFloatCmp            0      0.00%     53.72% # Class of committed instruction. (Count)
board.processor.cores7.core.commitStats0.committedInstType::SimdFloatCvt            0      0.00%     53.72% # Class of committed instruction. (Count)
board.processor.cores7.core.commitStats0.committedInstType::SimdFloatDiv            0      0.00%     53.72% # Class of committed instruction. (Count)
board.processor.cores7.core.commitStats0.committedInstType::SimdFloatMisc            0      0.00%     53.72% # Class of committed instruction. (Count)
board.processor.cores7.core.commitStats0.committedInstType::SimdFloatMult       125000      3.28%     56.99% # Class of committed instruction. (Count)
board.processor.cores7.core.commitStats0.committedInstType::SimdFloatMultAcc            0      0.00%     56.99% # Class of committed instruction. (Count)
board.processor.cores7.core.commitStats0.committedInstType::SimdFloatMatMultAcc            0      0.00%     56.99% # Class of committed instruction. (Count)
board.processor.cores7.core.commitStats0.committedInstType::SimdFloatSqrt            0      0.00%     56.99% # Class of committed instruction. (Count)
board.processor.cores7.core.commitStats0.committedInstType::SimdReduceAdd            0      0.00%     56.99% # Class of committed instruction. (Count)
board.processor.cores7.core.commitStats0.committedInstType::SimdReduceAlu            0      0.00%     56.99% # Class of committed instruction. (Count)
board.processor.cores7.core.commitStats0.committedInstType::SimdReduceCmp            0      0.00%     56.99% # Class of committed instruction. (Count)
board.processor.cores7.core.commitStats0.committedInstType::SimdFloatReduceAdd            0      0.00%     56.99% # Class of committed instruction. (Count)
board.processor.cores7.core.commitStats0.committedInstType::SimdFloatReduceCmp            0      0.00%     56.99% # Class of committed instruction. (Count)
board.processor.cores7.core.commitStats0.committedInstType::SimdAes            0      0.00%     56.99% # Class of committed instruction. (Count)
board.processor.cores7.core.commitStats0.committedInstType::SimdAesMix            0      0.00%     56.99% # Class of committed instruction. (Count)
board.processor.cores7.core.commitStats0.committedInstType::SimdSha1Hash            0      0.00%     56.99% # Class of committed instruction. (Count)
board.processor.cores7.core.commitStats0.committedInstType::SimdSha1Hash2            0      0.00%     56.99% # Class of committed instruction. (Count)
board.processor.cores7.core.commitStats0.committedInstType::SimdSha256Hash            0      0.00%     56.99% # Class of committed instruction. (Count)
board.processor.cores7.core.commitStats0.committedInstType::SimdSha256Hash2            0      0.00%     56.99% # Class of committed instruction. (Count)
board.processor.cores7.core.commitStats0.committedInstType::SimdShaSigma2            0      0.00%     56.99% # Class of committed instruction. (Count)
board.processor.cores7.core.commitStats0.committedInstType::SimdShaSigma3            0      0.00%     56.99% # Class of committed instruction. (Count)
board.processor.cores7.core.commitStats0.committedInstType::SimdPredAlu            0      0.00%     56.99% # Class of committed instruction. (Count)
board.processor.cores7.core.commitStats0.committedInstType::Matrix            0      0.00%     56.99% # Class of committed instruction. (Count)
board.processor.cores7.core.commitStats0.committedInstType::MatrixMov            0      0.00%     56.99% # Class of committed instruction. (Count)
board.processor.cores7.core.commitStats0.committedInstType::MatrixOP            0      0.00%     56.99% # Class of committed instruction. (Count)
board.processor.cores7.core.commitStats0.committedInstType::MemRead      1016001     26.62%     83.62% # Class of committed instruction. (Count)
board.processor.cores7.core.commitStats0.committedInstType::MemWrite       125173      3.28%     86.90% # Class of committed instruction. (Count)
board.processor.cores7.core.commitStats0.committedInstType::FloatMemRead       375025      9.83%     96.72% # Class of committed instruction. (Count)
board.processor.cores7.core.commitStats0.committedInstType::FloatMemWrite       125019      3.28%    100.00% # Class of committed instruction. (Count)
board.processor.cores7.core.commitStats0.committedInstType::IprAccess            0      0.00%    100.00% # Class of committed instruction. (Count)
board.processor.cores7.core.commitStats0.committedInstType::InstPrefetch            0      0.00%    100.00% # Class of committed instruction. (Count)
board.processor.cores7.core.commitStats0.committedInstType::SimdUnitStrideLoad            0      0.00%    100.00% # Class of committed instruction. (Count)
board.processor.cores7.core.commitStats0.committedInstType::SimdUnitStrideStore            0      0.00%    100.00% # Class of committed instruction. (Count)
board.processor.cores7.core.commitStats0.committedInstType::SimdUnitStrideMaskLoad            0      0.00%    100.00% # Class of committed instruction. (Count)
board.processor.cores7.core.commitStats0.committedInstType::SimdUnitStrideMaskStore            0      0.00%    100.00% # Class of committed instruction. (Count)
board.processor.cores7.core.commitStats0.committedInstType::SimdStridedLoad            0      0.00%    100.00% # Class of committed instruction. (Count)
board.processor.cores7.core.commitStats0.committedInstType::SimdStridedStore            0      0.00%    100.00% # Class of committed instruction. (Count)
board.processor.cores7.core.commitStats0.committedInstType::SimdIndexedLoad            0      0.00%    100.00% # Class of committed instruction. (Count)
board.processor.cores7.core.commitStats0.committedInstType::SimdIndexedStore            0      0.00%    100.00% # Class of committed instruction. (Count)
board.processor.cores7.core.commitStats0.committedInstType::SimdWholeRegisterLoad            0      0.00%    100.00% # Class of committed instruction. (Count)
board.processor.cores7.core.commitStats0.committedInstType::SimdWholeRegisterStore            0      0.00%    100.00% # Class of committed instruction. (Count)
board.processor.cores7.core.commitStats0.committedInstType::SimdUnitStrideFaultOnlyFirstLoad            0      0.00%    100.00% # Class of committed instruction. (Count)
board.processor.cores7.core.commitStats0.committedInstType::SimdUnitStrideSegmentedLoad            0      0.00%    100.00% # Class of committed instruction. (Count)
board.processor.cores7.core.commitStats0.committedInstType::SimdUnitStrideSegmentedStore            0      0.00%    100.00% # Class of committed instruction. (Count)
board.processor.cores7.core.commitStats0.committedInstType::SimdExt            0      0.00%    100.00% # Class of committed instruction. (Count)
board.processor.cores7.core.commitStats0.committedInstType::SimdFloatExt            0      0.00%    100.00% # Class of committed instruction. (Count)
board.processor.cores7.core.commitStats0.committedInstType::SimdConfig            0      0.00%    100.00% # Class of committed instruction. (Count)
board.processor.cores7.core.commitStats0.committedInstType::total      3816126                       # Class of committed instruction. (Count)
board.processor.cores7.core.executeStats0.numInsts            0                       # Number of executed instructions (Count)
board.processor.cores7.core.executeStats0.numNop            0                       # Number of nop insts executed (Count)
board.processor.cores7.core.executeStats0.numBranches            0                       # Number of branches executed (Count)
board.processor.cores7.core.executeStats0.numLoadInsts            0                       # Number of load instructions executed (Count)
board.processor.cores7.core.executeStats0.numStoreInsts            0                       # Number of stores executed (Count)
board.processor.cores7.core.executeStats0.instRate            0                       # Inst execution rate ((Count/Cycle))
board.processor.cores7.core.executeStats0.numFpRegWrites            0                       # Number of times the floating registers were written (Count)
board.processor.cores7.core.executeStats0.numMemRefs            0                       # Number of memory refs (Count)
board.processor.cores7.core.executeStats0.numVecAluAccesses            0                       # Number of vector alu accesses (Count)
board.processor.cores7.core.executeStats0.numDiscardedOps       563489                       # Number of ops (including micro ops) which were discarded before commit (Count)
board.processor.cores7.core.fetch2.intInstructions            0                       # Number of integer instructions successfully decoded (Count)
board.processor.cores7.core.fetch2.fpInstructions            0                       # Number of floating point instructions successfully decoded (Count)
board.processor.cores7.core.fetch2.vecInstructions            0                       # Number of SIMD instructions successfully decoded (Count)
board.processor.cores7.core.fetch2.loadInstructions            0                       # Number of memory load instructions successfully decoded (Count)
board.processor.cores7.core.fetch2.storeInstructions            0                       # Number of memory store instructions successfully decoded (Count)
board.processor.cores7.core.fetch2.amoInstructions            0                       # Number of memory atomic instructions successfully decoded (Count)
board.processor.cores7.core.fetchStats0.numInsts            0                       # Number of instructions fetched (thread level) (Count)
board.processor.cores7.core.fetchStats0.numOps            0                       # Number of ops (including micro ops) fetched (thread level) (Count)
board.processor.cores7.core.fetchStats0.fetchRate            0                       # Number of inst fetches per cycle ((Count/Cycle))
board.processor.cores7.core.fetchStats0.branchRate            0                       # Number of branch fetches per cycle (Ratio)
board.processor.cores7.core.fetchStats0.numFetchSuspends            0                       # Number of times Execute suspended instruction fetching (Count)
board.processor.cores7.core.interrupts.clk_domain.clock         5328                       # Clock period in ticks (Tick)
board.processor.cores7.core.mmu.dtb.rdAccesses      1406860                       # TLB accesses on read requests (Count)
board.processor.cores7.core.mmu.dtb.wrAccesses       250206                       # TLB accesses on write requests (Count)
board.processor.cores7.core.mmu.dtb.rdMisses          514                       # TLB misses on read requests (Count)
board.processor.cores7.core.mmu.dtb.wrMisses          249                       # TLB misses on write requests (Count)
board.processor.cores7.core.mmu.dtb.walker.power_state.pwrStateResidencyTicks::UNDEFINED  53901994383                       # Cumulative time (in ticks) in various power states (Tick)
board.processor.cores7.core.mmu.itb.rdAccesses            0                       # TLB accesses on read requests (Count)
board.processor.cores7.core.mmu.itb.wrAccesses       536616                       # TLB accesses on write requests (Count)
board.processor.cores7.core.mmu.itb.rdMisses            0                       # TLB misses on read requests (Count)
board.processor.cores7.core.mmu.itb.wrMisses           22                       # TLB misses on write requests (Count)
board.processor.cores7.core.mmu.itb.walker.power_state.pwrStateResidencyTicks::UNDEFINED  53901994383                       # Cumulative time (in ticks) in various power states (Tick)
board.processor.cores7.core.power_state.pwrStateResidencyTicks::ON  53901994383                       # Cumulative time (in ticks) in various power states (Tick)
board.processor.cores7.core.thread_0.numInsts      2611392                       # Number of Instructions committed (Count)
board.processor.cores7.core.thread_0.numOps      3816126                       # Number of Ops committed (Count)
board.processor.cores7.core.thread_0.numMemRefs            0                       # Number of Memory References (Count)
board.workload.inst.arm                             0                       # number of arm instructions executed (Count)
board.workload.inst.quiesce                         0                       # number of quiesce instructions executed (Count)
board.processor.cores0.core.idleCycles       76480605                       # Total number of cycles that the object has spent stopped (Unspecified)
board.processor.cores0.core.tickCycles       85387246                       # Number of cycles that the object actually ticked (Unspecified)
board.processor.cores1.core.idleCycles       12057278                       # Total number of cycles that the object has spent stopped (Unspecified)
board.processor.cores1.core.tickCycles        5653414                       # Number of cycles that the object actually ticked (Unspecified)
board.processor.cores2.core.idleCycles       12106732                       # Total number of cycles that the object has spent stopped (Unspecified)
board.processor.cores2.core.tickCycles        5594192                       # Number of cycles that the object actually ticked (Unspecified)
board.processor.cores3.core.idleCycles       12098510                       # Total number of cycles that the object has spent stopped (Unspecified)
board.processor.cores3.core.tickCycles        5595234                       # Number of cycles that the object actually ticked (Unspecified)
board.processor.cores4.core.idleCycles       12143725                       # Total number of cycles that the object has spent stopped (Unspecified)
board.processor.cores4.core.tickCycles        5541731                       # Number of cycles that the object actually ticked (Unspecified)
board.processor.cores5.core.idleCycles       12035256                       # Total number of cycles that the object has spent stopped (Unspecified)
board.processor.cores5.core.tickCycles        5643513                       # Number of cycles that the object actually ticked (Unspecified)
board.processor.cores6.core.idleCycles       12124983                       # Total number of cycles that the object has spent stopped (Unspecified)
board.processor.cores6.core.tickCycles        5547041                       # Number of cycles that the object actually ticked (Unspecified)
board.processor.cores7.core.idleCycles       12048865                       # Total number of cycles that the object has spent stopped (Unspecified)
board.processor.cores7.core.tickCycles        5615971                       # Number of cycles that the object actually ticked (Unspecified)

---------- End Simulation Statistics   ----------
