
---------- Begin Simulation Statistics ----------
simSeconds                                   0.164262                       # Number of seconds simulated (Second)
simTicks                                 164261521053                       # Number of ticks simulated (Tick)
finalTick                                164261521053                       # Number of ticks from beginning of simulation (restored from checkpoints and never reset) (Tick)
simFreq                                  1000000000000                       # The number of ticks per simulated second ((Tick/Second))
hostSeconds                                    387.46                       # Real time elapsed on the host (Second)
hostTickRate                                423945942                       # The number of ticks simulated per host second (ticks/s) ((Tick/Second))
hostMemory                                    2297240                       # Number of bytes of host memory used (Byte)
simInsts                                    137732201                       # Number of instructions simulated (Count)
simOps                                      240462066                       # Number of ops (including micro ops) simulated (Count)
hostInstRate                                   355476                       # Simulator instruction rate (inst/s) ((Count/Second))
hostOpRate                                     620613                       # Simulator op (including micro ops) rate (op/s) ((Count/Second))
board.cache_hierarchy.dptw_cache.blockedCycles::no_mshrs            0                       # number of cycles access was blocked (Cycle)
board.cache_hierarchy.dptw_cache.blockedCycles::no_targets            0                       # number of cycles access was blocked (Cycle)
board.cache_hierarchy.dptw_cache.blockedCauses::no_mshrs            0                       # number of times access was blocked (Count)
board.cache_hierarchy.dptw_cache.blockedCauses::no_targets            0                       # number of times access was blocked (Count)
board.cache_hierarchy.dptw_cache.avgBlocked::no_mshrs          nan                       # average number of cycles each access was blocked ((Cycle/Count))
board.cache_hierarchy.dptw_cache.avgBlocked::no_targets          nan                       # average number of cycles each access was blocked ((Cycle/Count))
board.cache_hierarchy.dptw_cache.replacements            0                       # number of replacements (Count)
board.cache_hierarchy.dptw_cache.power_state.pwrStateResidencyTicks::UNDEFINED 164261521053                       # Cumulative time (in ticks) in various power states (Tick)
board.cache_hierarchy.dptw_cache.tags.tagsInUse            0                       # Average ticks per tags in use ((Tick/Count))
board.cache_hierarchy.dptw_cache.tags.totalRefs            0                       # Total number of references to valid blocks. (Count)
board.cache_hierarchy.dptw_cache.tags.sampledRefs            0                       # Sample count of references to valid blocks. (Count)
board.cache_hierarchy.dptw_cache.tags.avgRefs          nan                       # Average number of references to valid blocks. ((Count/Count))
board.cache_hierarchy.dptw_cache.tags.warmupTick            0                       # The tick when the warmup percentage was hit. (Tick)
board.cache_hierarchy.dptw_cache.tags.tagAccesses            0                       # Number of tag accesses (Count)
board.cache_hierarchy.dptw_cache.tags.dataAccesses            0                       # Number of data accesses (Count)
board.cache_hierarchy.dptw_cache.tags.power_state.pwrStateResidencyTicks::UNDEFINED 164261521053                       # Cumulative time (in ticks) in various power states (Tick)
board.cache_hierarchy.iptw_cache.blockedCycles::no_mshrs            0                       # number of cycles access was blocked (Cycle)
board.cache_hierarchy.iptw_cache.blockedCycles::no_targets            0                       # number of cycles access was blocked (Cycle)
board.cache_hierarchy.iptw_cache.blockedCauses::no_mshrs            0                       # number of times access was blocked (Count)
board.cache_hierarchy.iptw_cache.blockedCauses::no_targets            0                       # number of times access was blocked (Count)
board.cache_hierarchy.iptw_cache.avgBlocked::no_mshrs          nan                       # average number of cycles each access was blocked ((Cycle/Count))
board.cache_hierarchy.iptw_cache.avgBlocked::no_targets          nan                       # average number of cycles each access was blocked ((Cycle/Count))
board.cache_hierarchy.iptw_cache.replacements            0                       # number of replacements (Count)
board.cache_hierarchy.iptw_cache.power_state.pwrStateResidencyTicks::UNDEFINED 164261521053                       # Cumulative time (in ticks) in various power states (Tick)
board.cache_hierarchy.iptw_cache.tags.tagsInUse            0                       # Average ticks per tags in use ((Tick/Count))
board.cache_hierarchy.iptw_cache.tags.totalRefs            0                       # Total number of references to valid blocks. (Count)
board.cache_hierarchy.iptw_cache.tags.sampledRefs            0                       # Sample count of references to valid blocks. (Count)
board.cache_hierarchy.iptw_cache.tags.avgRefs          nan                       # Average number of references to valid blocks. ((Count/Count))
board.cache_hierarchy.iptw_cache.tags.warmupTick            0                       # The tick when the warmup percentage was hit. (Tick)
board.cache_hierarchy.iptw_cache.tags.tagAccesses            0                       # Number of tag accesses (Count)
board.cache_hierarchy.iptw_cache.tags.dataAccesses            0                       # Number of data accesses (Count)
board.cache_hierarchy.iptw_cache.tags.power_state.pwrStateResidencyTicks::UNDEFINED 164261521053                       # Cumulative time (in ticks) in various power states (Tick)
board.cache_hierarchy.l1_dcache.demandHits::processor.cores.core.data     49348054                       # number of demand (read+write) hits (Count)
board.cache_hierarchy.l1_dcache.demandHits::total     49348054                       # number of demand (read+write) hits (Count)
board.cache_hierarchy.l1_dcache.overallHits::processor.cores.core.data     49348054                       # number of overall hits (Count)
board.cache_hierarchy.l1_dcache.overallHits::total     49348054                       # number of overall hits (Count)
board.cache_hierarchy.l1_dcache.demandMisses::processor.cores.core.data     18828544                       # number of demand (read+write) misses (Count)
board.cache_hierarchy.l1_dcache.demandMisses::total     18828544                       # number of demand (read+write) misses (Count)
board.cache_hierarchy.l1_dcache.overallMisses::processor.cores.core.data     18828544                       # number of overall misses (Count)
board.cache_hierarchy.l1_dcache.overallMisses::total     18828544                       # number of overall misses (Count)
board.cache_hierarchy.l1_dcache.demandMissLatency::processor.cores.core.data  90522815571                       # number of demand (read+write) miss ticks (Tick)
board.cache_hierarchy.l1_dcache.demandMissLatency::total  90522815571                       # number of demand (read+write) miss ticks (Tick)
board.cache_hierarchy.l1_dcache.overallMissLatency::processor.cores.core.data  90522815571                       # number of overall miss ticks (Tick)
board.cache_hierarchy.l1_dcache.overallMissLatency::total  90522815571                       # number of overall miss ticks (Tick)
board.cache_hierarchy.l1_dcache.demandAccesses::processor.cores.core.data     68176598                       # number of demand (read+write) accesses (Count)
board.cache_hierarchy.l1_dcache.demandAccesses::total     68176598                       # number of demand (read+write) accesses (Count)
board.cache_hierarchy.l1_dcache.overallAccesses::processor.cores.core.data     68176598                       # number of overall (read+write) accesses (Count)
board.cache_hierarchy.l1_dcache.overallAccesses::total     68176598                       # number of overall (read+write) accesses (Count)
board.cache_hierarchy.l1_dcache.demandMissRate::processor.cores.core.data     0.276173                       # miss rate for demand accesses (Ratio)
board.cache_hierarchy.l1_dcache.demandMissRate::total     0.276173                       # miss rate for demand accesses (Ratio)
board.cache_hierarchy.l1_dcache.overallMissRate::processor.cores.core.data     0.276173                       # miss rate for overall accesses (Ratio)
board.cache_hierarchy.l1_dcache.overallMissRate::total     0.276173                       # miss rate for overall accesses (Ratio)
board.cache_hierarchy.l1_dcache.demandAvgMissLatency::processor.cores.core.data  4807.743794                       # average overall miss latency in ticks ((Tick/Count))
board.cache_hierarchy.l1_dcache.demandAvgMissLatency::total  4807.743794                       # average overall miss latency in ticks ((Tick/Count))
board.cache_hierarchy.l1_dcache.overallAvgMissLatency::processor.cores.core.data  4807.743794                       # average overall miss latency ((Tick/Count))
board.cache_hierarchy.l1_dcache.overallAvgMissLatency::total  4807.743794                       # average overall miss latency ((Tick/Count))
board.cache_hierarchy.l1_dcache.blockedCycles::no_mshrs            0                       # number of cycles access was blocked (Cycle)
board.cache_hierarchy.l1_dcache.blockedCycles::no_targets            0                       # number of cycles access was blocked (Cycle)
board.cache_hierarchy.l1_dcache.blockedCauses::no_mshrs            0                       # number of times access was blocked (Count)
board.cache_hierarchy.l1_dcache.blockedCauses::no_targets            0                       # number of times access was blocked (Count)
board.cache_hierarchy.l1_dcache.avgBlocked::no_mshrs          nan                       # average number of cycles each access was blocked ((Cycle/Count))
board.cache_hierarchy.l1_dcache.avgBlocked::no_targets          nan                       # average number of cycles each access was blocked ((Cycle/Count))
board.cache_hierarchy.l1_dcache.writebacks::writebacks       617256                       # number of writebacks (Count)
board.cache_hierarchy.l1_dcache.writebacks::total       617256                       # number of writebacks (Count)
board.cache_hierarchy.l1_dcache.demandMshrHits::processor.cores.core.data         2116                       # number of demand (read+write) MSHR hits (Count)
board.cache_hierarchy.l1_dcache.demandMshrHits::total         2116                       # number of demand (read+write) MSHR hits (Count)
board.cache_hierarchy.l1_dcache.overallMshrHits::processor.cores.core.data         2116                       # number of overall MSHR hits (Count)
board.cache_hierarchy.l1_dcache.overallMshrHits::total         2116                       # number of overall MSHR hits (Count)
board.cache_hierarchy.l1_dcache.demandMshrMisses::processor.cores.core.data     18826428                       # number of demand (read+write) MSHR misses (Count)
board.cache_hierarchy.l1_dcache.demandMshrMisses::total     18826428                       # number of demand (read+write) MSHR misses (Count)
board.cache_hierarchy.l1_dcache.overallMshrMisses::cache_hierarchy.l1_dcache.prefetcher       829885                       # number of overall MSHR misses (Count)
board.cache_hierarchy.l1_dcache.overallMshrMisses::processor.cores.core.data     18826428                       # number of overall MSHR misses (Count)
board.cache_hierarchy.l1_dcache.overallMshrMisses::total     19656313                       # number of overall MSHR misses (Count)
board.cache_hierarchy.l1_dcache.demandMshrMissLatency::processor.cores.core.data  84219888474                       # number of demand (read+write) MSHR miss ticks (Tick)
board.cache_hierarchy.l1_dcache.demandMshrMissLatency::total  84219888474                       # number of demand (read+write) MSHR miss ticks (Tick)
board.cache_hierarchy.l1_dcache.overallMshrMissLatency::cache_hierarchy.l1_dcache.prefetcher   5273623837                       # number of overall MSHR miss ticks (Tick)
board.cache_hierarchy.l1_dcache.overallMshrMissLatency::processor.cores.core.data  84219888474                       # number of overall MSHR miss ticks (Tick)
board.cache_hierarchy.l1_dcache.overallMshrMissLatency::total  89493512311                       # number of overall MSHR miss ticks (Tick)
board.cache_hierarchy.l1_dcache.demandMshrMissRate::processor.cores.core.data     0.276142                       # mshr miss ratio for demand accesses (Ratio)
board.cache_hierarchy.l1_dcache.demandMshrMissRate::total     0.276142                       # mshr miss ratio for demand accesses (Ratio)
board.cache_hierarchy.l1_dcache.overallMshrMissRate::cache_hierarchy.l1_dcache.prefetcher          inf                       # mshr miss ratio for overall accesses (Ratio)
board.cache_hierarchy.l1_dcache.overallMshrMissRate::processor.cores.core.data     0.276142                       # mshr miss ratio for overall accesses (Ratio)
board.cache_hierarchy.l1_dcache.overallMshrMissRate::total     0.288315                       # mshr miss ratio for overall accesses (Ratio)
board.cache_hierarchy.l1_dcache.demandAvgMshrMissLatency::processor.cores.core.data  4473.492713                       # average overall mshr miss latency ((Tick/Count))
board.cache_hierarchy.l1_dcache.demandAvgMshrMissLatency::total  4473.492713                       # average overall mshr miss latency ((Tick/Count))
board.cache_hierarchy.l1_dcache.overallAvgMshrMissLatency::cache_hierarchy.l1_dcache.prefetcher  6354.644122                       # average overall mshr miss latency ((Tick/Count))
board.cache_hierarchy.l1_dcache.overallAvgMshrMissLatency::processor.cores.core.data  4473.492713                       # average overall mshr miss latency ((Tick/Count))
board.cache_hierarchy.l1_dcache.overallAvgMshrMissLatency::total  4552.914492                       # average overall mshr miss latency ((Tick/Count))
board.cache_hierarchy.l1_dcache.replacements     19656253                       # number of replacements (Count)
board.cache_hierarchy.l1_dcache.HardPFReq.mshrMisses::cache_hierarchy.l1_dcache.prefetcher       829885                       # number of HardPFReq MSHR misses (Count)
board.cache_hierarchy.l1_dcache.HardPFReq.mshrMisses::total       829885                       # number of HardPFReq MSHR misses (Count)
board.cache_hierarchy.l1_dcache.HardPFReq.mshrMissLatency::cache_hierarchy.l1_dcache.prefetcher   5273623837                       # number of HardPFReq MSHR miss ticks (Tick)
board.cache_hierarchy.l1_dcache.HardPFReq.mshrMissLatency::total   5273623837                       # number of HardPFReq MSHR miss ticks (Tick)
board.cache_hierarchy.l1_dcache.HardPFReq.mshrMissRate::cache_hierarchy.l1_dcache.prefetcher          inf                       # mshr miss rate for HardPFReq accesses (Ratio)
board.cache_hierarchy.l1_dcache.HardPFReq.mshrMissRate::total          inf                       # mshr miss rate for HardPFReq accesses (Ratio)
board.cache_hierarchy.l1_dcache.HardPFReq.avgMshrMissLatency::cache_hierarchy.l1_dcache.prefetcher  6354.644122                       # average HardPFReq mshr miss latency ((Tick/Count))
board.cache_hierarchy.l1_dcache.HardPFReq.avgMshrMissLatency::total  6354.644122                       # average HardPFReq mshr miss latency ((Tick/Count))
board.cache_hierarchy.l1_dcache.LockedRMWReadReq.hits::processor.cores.core.data            8                       # number of LockedRMWReadReq hits (Count)
board.cache_hierarchy.l1_dcache.LockedRMWReadReq.hits::total            8                       # number of LockedRMWReadReq hits (Count)
board.cache_hierarchy.l1_dcache.LockedRMWReadReq.misses::processor.cores.core.data            4                       # number of LockedRMWReadReq misses (Count)
board.cache_hierarchy.l1_dcache.LockedRMWReadReq.misses::total            4                       # number of LockedRMWReadReq misses (Count)
board.cache_hierarchy.l1_dcache.LockedRMWReadReq.missLatency::processor.cores.core.data       137196                       # number of LockedRMWReadReq miss ticks (Tick)
board.cache_hierarchy.l1_dcache.LockedRMWReadReq.missLatency::total       137196                       # number of LockedRMWReadReq miss ticks (Tick)
board.cache_hierarchy.l1_dcache.LockedRMWReadReq.accesses::processor.cores.core.data           12                       # number of LockedRMWReadReq accesses(hits+misses) (Count)
board.cache_hierarchy.l1_dcache.LockedRMWReadReq.accesses::total           12                       # number of LockedRMWReadReq accesses(hits+misses) (Count)
board.cache_hierarchy.l1_dcache.LockedRMWReadReq.missRate::processor.cores.core.data     0.333333                       # miss rate for LockedRMWReadReq accesses (Ratio)
board.cache_hierarchy.l1_dcache.LockedRMWReadReq.missRate::total     0.333333                       # miss rate for LockedRMWReadReq accesses (Ratio)
board.cache_hierarchy.l1_dcache.LockedRMWReadReq.avgMissLatency::processor.cores.core.data        34299                       # average LockedRMWReadReq miss latency ((Tick/Count))
board.cache_hierarchy.l1_dcache.LockedRMWReadReq.avgMissLatency::total        34299                       # average LockedRMWReadReq miss latency ((Tick/Count))
board.cache_hierarchy.l1_dcache.LockedRMWReadReq.mshrMisses::processor.cores.core.data            4                       # number of LockedRMWReadReq MSHR misses (Count)
board.cache_hierarchy.l1_dcache.LockedRMWReadReq.mshrMisses::total            4                       # number of LockedRMWReadReq MSHR misses (Count)
board.cache_hierarchy.l1_dcache.LockedRMWReadReq.mshrMissLatency::processor.cores.core.data       275724                       # number of LockedRMWReadReq MSHR miss ticks (Tick)
board.cache_hierarchy.l1_dcache.LockedRMWReadReq.mshrMissLatency::total       275724                       # number of LockedRMWReadReq MSHR miss ticks (Tick)
board.cache_hierarchy.l1_dcache.LockedRMWReadReq.mshrMissRate::processor.cores.core.data     0.333333                       # mshr miss rate for LockedRMWReadReq accesses (Ratio)
board.cache_hierarchy.l1_dcache.LockedRMWReadReq.mshrMissRate::total     0.333333                       # mshr miss rate for LockedRMWReadReq accesses (Ratio)
board.cache_hierarchy.l1_dcache.LockedRMWReadReq.avgMshrMissLatency::processor.cores.core.data        68931                       # average LockedRMWReadReq mshr miss latency ((Tick/Count))
board.cache_hierarchy.l1_dcache.LockedRMWReadReq.avgMshrMissLatency::total        68931                       # average LockedRMWReadReq mshr miss latency ((Tick/Count))
board.cache_hierarchy.l1_dcache.LockedRMWWriteReq.hits::processor.cores.core.data           12                       # number of LockedRMWWriteReq hits (Count)
board.cache_hierarchy.l1_dcache.LockedRMWWriteReq.hits::total           12                       # number of LockedRMWWriteReq hits (Count)
board.cache_hierarchy.l1_dcache.LockedRMWWriteReq.accesses::processor.cores.core.data           12                       # number of LockedRMWWriteReq accesses(hits+misses) (Count)
board.cache_hierarchy.l1_dcache.LockedRMWWriteReq.accesses::total           12                       # number of LockedRMWWriteReq accesses(hits+misses) (Count)
board.cache_hierarchy.l1_dcache.ReadReq.hits::processor.cores.core.data     32944091                       # number of ReadReq hits (Count)
board.cache_hierarchy.l1_dcache.ReadReq.hits::total     32944091                       # number of ReadReq hits (Count)
board.cache_hierarchy.l1_dcache.ReadReq.misses::processor.cores.core.data     18299874                       # number of ReadReq misses (Count)
board.cache_hierarchy.l1_dcache.ReadReq.misses::total     18299874                       # number of ReadReq misses (Count)
board.cache_hierarchy.l1_dcache.ReadReq.missLatency::processor.cores.core.data  86846049351                       # number of ReadReq miss ticks (Tick)
board.cache_hierarchy.l1_dcache.ReadReq.missLatency::total  86846049351                       # number of ReadReq miss ticks (Tick)
board.cache_hierarchy.l1_dcache.ReadReq.accesses::processor.cores.core.data     51243965                       # number of ReadReq accesses(hits+misses) (Count)
board.cache_hierarchy.l1_dcache.ReadReq.accesses::total     51243965                       # number of ReadReq accesses(hits+misses) (Count)
board.cache_hierarchy.l1_dcache.ReadReq.missRate::processor.cores.core.data     0.357113                       # miss rate for ReadReq accesses (Ratio)
board.cache_hierarchy.l1_dcache.ReadReq.missRate::total     0.357113                       # miss rate for ReadReq accesses (Ratio)
board.cache_hierarchy.l1_dcache.ReadReq.avgMissLatency::processor.cores.core.data  4745.718432                       # average ReadReq miss latency ((Tick/Count))
board.cache_hierarchy.l1_dcache.ReadReq.avgMissLatency::total  4745.718432                       # average ReadReq miss latency ((Tick/Count))
board.cache_hierarchy.l1_dcache.ReadReq.mshrHits::processor.cores.core.data            5                       # number of ReadReq MSHR hits (Count)
board.cache_hierarchy.l1_dcache.ReadReq.mshrHits::total            5                       # number of ReadReq MSHR hits (Count)
board.cache_hierarchy.l1_dcache.ReadReq.mshrMisses::processor.cores.core.data     18299869                       # number of ReadReq MSHR misses (Count)
board.cache_hierarchy.l1_dcache.ReadReq.mshrMisses::total     18299869                       # number of ReadReq MSHR misses (Count)
board.cache_hierarchy.l1_dcache.ReadReq.mshrMissLatency::processor.cores.core.data  80752181652                       # number of ReadReq MSHR miss ticks (Tick)
board.cache_hierarchy.l1_dcache.ReadReq.mshrMissLatency::total  80752181652                       # number of ReadReq MSHR miss ticks (Tick)
board.cache_hierarchy.l1_dcache.ReadReq.mshrMissRate::processor.cores.core.data     0.357113                       # mshr miss rate for ReadReq accesses (Ratio)
board.cache_hierarchy.l1_dcache.ReadReq.mshrMissRate::total     0.357113                       # mshr miss rate for ReadReq accesses (Ratio)
board.cache_hierarchy.l1_dcache.ReadReq.avgMshrMissLatency::processor.cores.core.data  4412.719110                       # average ReadReq mshr miss latency ((Tick/Count))
board.cache_hierarchy.l1_dcache.ReadReq.avgMshrMissLatency::total  4412.719110                       # average ReadReq mshr miss latency ((Tick/Count))
board.cache_hierarchy.l1_dcache.WriteReq.hits::processor.cores.core.data     16403963                       # number of WriteReq hits (Count)
board.cache_hierarchy.l1_dcache.WriteReq.hits::total     16403963                       # number of WriteReq hits (Count)
board.cache_hierarchy.l1_dcache.WriteReq.misses::processor.cores.core.data       528670                       # number of WriteReq misses (Count)
board.cache_hierarchy.l1_dcache.WriteReq.misses::total       528670                       # number of WriteReq misses (Count)
board.cache_hierarchy.l1_dcache.WriteReq.missLatency::processor.cores.core.data   3676766220                       # number of WriteReq miss ticks (Tick)
board.cache_hierarchy.l1_dcache.WriteReq.missLatency::total   3676766220                       # number of WriteReq miss ticks (Tick)
board.cache_hierarchy.l1_dcache.WriteReq.accesses::processor.cores.core.data     16932633                       # number of WriteReq accesses(hits+misses) (Count)
board.cache_hierarchy.l1_dcache.WriteReq.accesses::total     16932633                       # number of WriteReq accesses(hits+misses) (Count)
board.cache_hierarchy.l1_dcache.WriteReq.missRate::processor.cores.core.data     0.031222                       # miss rate for WriteReq accesses (Ratio)
board.cache_hierarchy.l1_dcache.WriteReq.missRate::total     0.031222                       # miss rate for WriteReq accesses (Ratio)
board.cache_hierarchy.l1_dcache.WriteReq.avgMissLatency::processor.cores.core.data  6954.747234                       # average WriteReq miss latency ((Tick/Count))
board.cache_hierarchy.l1_dcache.WriteReq.avgMissLatency::total  6954.747234                       # average WriteReq miss latency ((Tick/Count))
board.cache_hierarchy.l1_dcache.WriteReq.mshrHits::processor.cores.core.data         2111                       # number of WriteReq MSHR hits (Count)
board.cache_hierarchy.l1_dcache.WriteReq.mshrHits::total         2111                       # number of WriteReq MSHR hits (Count)
board.cache_hierarchy.l1_dcache.WriteReq.mshrMisses::processor.cores.core.data       526559                       # number of WriteReq MSHR misses (Count)
board.cache_hierarchy.l1_dcache.WriteReq.mshrMisses::total       526559                       # number of WriteReq MSHR misses (Count)
board.cache_hierarchy.l1_dcache.WriteReq.mshrMissLatency::processor.cores.core.data   3467706822                       # number of WriteReq MSHR miss ticks (Tick)
board.cache_hierarchy.l1_dcache.WriteReq.mshrMissLatency::total   3467706822                       # number of WriteReq MSHR miss ticks (Tick)
board.cache_hierarchy.l1_dcache.WriteReq.mshrMissRate::processor.cores.core.data     0.031097                       # mshr miss rate for WriteReq accesses (Ratio)
board.cache_hierarchy.l1_dcache.WriteReq.mshrMissRate::total     0.031097                       # mshr miss rate for WriteReq accesses (Ratio)
board.cache_hierarchy.l1_dcache.WriteReq.avgMshrMissLatency::processor.cores.core.data  6585.599756                       # average WriteReq mshr miss latency ((Tick/Count))
board.cache_hierarchy.l1_dcache.WriteReq.avgMshrMissLatency::total  6585.599756                       # average WriteReq mshr miss latency ((Tick/Count))
board.cache_hierarchy.l1_dcache.power_state.pwrStateResidencyTicks::UNDEFINED 164261521053                       # Cumulative time (in ticks) in various power states (Tick)
board.cache_hierarchy.l1_dcache.prefetcher.demandMshrMisses     18826428                       # demands not covered by prefetchs (Count)
board.cache_hierarchy.l1_dcache.prefetcher.pfIssued      1419383                       # number of hwpf issued (Count)
board.cache_hierarchy.l1_dcache.prefetcher.pfUnused       708783                       # number of HardPF blocks evicted w/o reference (Count)
board.cache_hierarchy.l1_dcache.prefetcher.pfUseful       118980                       # number of useful prefetch (Count)
board.cache_hierarchy.l1_dcache.prefetcher.pfUsefulButMiss            0                       # number of hit on prefetch but cache block is not in an usable state (Count)
board.cache_hierarchy.l1_dcache.prefetcher.accuracy     0.083825                       # accuracy of the prefetcher (Count)
board.cache_hierarchy.l1_dcache.prefetcher.coverage     0.006280                       # coverage brought by this prefetcher (Count)
board.cache_hierarchy.l1_dcache.prefetcher.pfHitInCache       577830                       # number of prefetches hitting in cache (Count)
board.cache_hierarchy.l1_dcache.prefetcher.pfHitInMSHR        10716                       # number of prefetches hitting in a MSHR (Count)
board.cache_hierarchy.l1_dcache.prefetcher.pfHitInWB          952                       # number of prefetches hit in the Write Buffer (Count)
board.cache_hierarchy.l1_dcache.prefetcher.pfLate       589498                       # number of late prefetches (hitting in cache, MSHR or WB) (Count)
board.cache_hierarchy.l1_dcache.prefetcher.pfIdentified      1419383                       # number of prefetch candidates identified (Count)
board.cache_hierarchy.l1_dcache.prefetcher.pfBufferHit            0                       # number of redundant prefetches already in prefetch queue (Count)
board.cache_hierarchy.l1_dcache.prefetcher.pfInCache            0                       # number of redundant prefetches already in cache/mshr dropped (Count)
board.cache_hierarchy.l1_dcache.prefetcher.pfRemovedDemand            0                       # number of prefetches dropped due to a demand for the same address (Count)
board.cache_hierarchy.l1_dcache.prefetcher.pfRemovedFull            0                       # number of prefetches dropped due to prefetch queue size (Count)
board.cache_hierarchy.l1_dcache.prefetcher.pfSpanPage       102533                       # number of prefetches that crossed the page (Count)
board.cache_hierarchy.l1_dcache.prefetcher.pfUsefulSpanPage        33551                       # number of prefetches that is useful and crossed the page (Count)
board.cache_hierarchy.l1_dcache.prefetcher.power_state.pwrStateResidencyTicks::UNDEFINED 164261521053                       # Cumulative time (in ticks) in various power states (Tick)
board.cache_hierarchy.l1_dcache.tags.tagsInUse    63.996566                       # Average ticks per tags in use ((Tick/Count))
board.cache_hierarchy.l1_dcache.tags.totalRefs     69004391                       # Total number of references to valid blocks. (Count)
board.cache_hierarchy.l1_dcache.tags.sampledRefs     19656317                       # Sample count of references to valid blocks. (Count)
board.cache_hierarchy.l1_dcache.tags.avgRefs     3.510545                       # Average number of references to valid blocks. ((Count/Count))
board.cache_hierarchy.l1_dcache.tags.warmupTick       138195                       # The tick when the warmup percentage was hit. (Tick)
board.cache_hierarchy.l1_dcache.tags.occupancies::cache_hierarchy.l1_dcache.prefetcher     3.110345                       # Average occupied blocks per tick, per requestor ((Count/Tick))
board.cache_hierarchy.l1_dcache.tags.occupancies::processor.cores.core.data    60.886221                       # Average occupied blocks per tick, per requestor ((Count/Tick))
board.cache_hierarchy.l1_dcache.tags.avgOccs::cache_hierarchy.l1_dcache.prefetcher     0.048599                       # Average percentage of cache occupancy ((Ratio/Tick))
board.cache_hierarchy.l1_dcache.tags.avgOccs::processor.cores.core.data     0.951347                       # Average percentage of cache occupancy ((Ratio/Tick))
board.cache_hierarchy.l1_dcache.tags.avgOccs::total     0.999946                       # Average percentage of cache occupancy ((Ratio/Tick))
board.cache_hierarchy.l1_dcache.tags.occupanciesTaskId::1022            6                       # Occupied blocks per task id (Count)
board.cache_hierarchy.l1_dcache.tags.occupanciesTaskId::1024           58                       # Occupied blocks per task id (Count)
board.cache_hierarchy.l1_dcache.tags.ageTaskId_1022::1            6                       # Occupied blocks per task id, per block age (Count)
board.cache_hierarchy.l1_dcache.tags.ageTaskId_1024::0           41                       # Occupied blocks per task id, per block age (Count)
board.cache_hierarchy.l1_dcache.tags.ageTaskId_1024::1           17                       # Occupied blocks per task id, per block age (Count)
board.cache_hierarchy.l1_dcache.tags.ratioOccsTaskId::1022     0.093750                       # Ratio of occupied blocks and all blocks, per task id (Ratio)
board.cache_hierarchy.l1_dcache.tags.ratioOccsTaskId::1024     0.906250                       # Ratio of occupied blocks and all blocks, per task id (Ratio)
board.cache_hierarchy.l1_dcache.tags.tagAccesses     87832939                       # Number of tag accesses (Count)
board.cache_hierarchy.l1_dcache.tags.dataAccesses     87832939                       # Number of data accesses (Count)
board.cache_hierarchy.l1_dcache.tags.power_state.pwrStateResidencyTicks::UNDEFINED 164261521053                       # Cumulative time (in ticks) in various power states (Tick)
board.cache_hierarchy.l1_icache.demandHits::processor.cores.core.inst    171693848                       # number of demand (read+write) hits (Count)
board.cache_hierarchy.l1_icache.demandHits::total    171693848                       # number of demand (read+write) hits (Count)
board.cache_hierarchy.l1_icache.overallHits::processor.cores.core.inst    171693848                       # number of overall hits (Count)
board.cache_hierarchy.l1_icache.overallHits::total    171693848                       # number of overall hits (Count)
board.cache_hierarchy.l1_icache.demandMisses::processor.cores.core.inst        14936                       # number of demand (read+write) misses (Count)
board.cache_hierarchy.l1_icache.demandMisses::total        14936                       # number of demand (read+write) misses (Count)
board.cache_hierarchy.l1_icache.overallMisses::processor.cores.core.inst        14936                       # number of overall misses (Count)
board.cache_hierarchy.l1_icache.overallMisses::total        14936                       # number of overall misses (Count)
board.cache_hierarchy.l1_icache.demandMissLatency::processor.cores.core.inst    127911627                       # number of demand (read+write) miss ticks (Tick)
board.cache_hierarchy.l1_icache.demandMissLatency::total    127911627                       # number of demand (read+write) miss ticks (Tick)
board.cache_hierarchy.l1_icache.overallMissLatency::processor.cores.core.inst    127911627                       # number of overall miss ticks (Tick)
board.cache_hierarchy.l1_icache.overallMissLatency::total    127911627                       # number of overall miss ticks (Tick)
board.cache_hierarchy.l1_icache.demandAccesses::processor.cores.core.inst    171708784                       # number of demand (read+write) accesses (Count)
board.cache_hierarchy.l1_icache.demandAccesses::total    171708784                       # number of demand (read+write) accesses (Count)
board.cache_hierarchy.l1_icache.overallAccesses::processor.cores.core.inst    171708784                       # number of overall (read+write) accesses (Count)
board.cache_hierarchy.l1_icache.overallAccesses::total    171708784                       # number of overall (read+write) accesses (Count)
board.cache_hierarchy.l1_icache.demandMissRate::processor.cores.core.inst     0.000087                       # miss rate for demand accesses (Ratio)
board.cache_hierarchy.l1_icache.demandMissRate::total     0.000087                       # miss rate for demand accesses (Ratio)
board.cache_hierarchy.l1_icache.overallMissRate::processor.cores.core.inst     0.000087                       # miss rate for overall accesses (Ratio)
board.cache_hierarchy.l1_icache.overallMissRate::total     0.000087                       # miss rate for overall accesses (Ratio)
board.cache_hierarchy.l1_icache.demandAvgMissLatency::processor.cores.core.inst  8563.981454                       # average overall miss latency in ticks ((Tick/Count))
board.cache_hierarchy.l1_icache.demandAvgMissLatency::total  8563.981454                       # average overall miss latency in ticks ((Tick/Count))
board.cache_hierarchy.l1_icache.overallAvgMissLatency::processor.cores.core.inst  8563.981454                       # average overall miss latency ((Tick/Count))
board.cache_hierarchy.l1_icache.overallAvgMissLatency::total  8563.981454                       # average overall miss latency ((Tick/Count))
board.cache_hierarchy.l1_icache.blockedCycles::no_mshrs            0                       # number of cycles access was blocked (Cycle)
board.cache_hierarchy.l1_icache.blockedCycles::no_targets            0                       # number of cycles access was blocked (Cycle)
board.cache_hierarchy.l1_icache.blockedCauses::no_mshrs            0                       # number of times access was blocked (Count)
board.cache_hierarchy.l1_icache.blockedCauses::no_targets            0                       # number of times access was blocked (Count)
board.cache_hierarchy.l1_icache.avgBlocked::no_mshrs          nan                       # average number of cycles each access was blocked ((Cycle/Count))
board.cache_hierarchy.l1_icache.avgBlocked::no_targets          nan                       # average number of cycles each access was blocked ((Cycle/Count))
board.cache_hierarchy.l1_icache.demandMshrMisses::processor.cores.core.inst        14936                       # number of demand (read+write) MSHR misses (Count)
board.cache_hierarchy.l1_icache.demandMshrMisses::total        14936                       # number of demand (read+write) MSHR misses (Count)
board.cache_hierarchy.l1_icache.overallMshrMisses::processor.cores.core.inst        14936                       # number of overall MSHR misses (Count)
board.cache_hierarchy.l1_icache.overallMshrMisses::total        14936                       # number of overall MSHR misses (Count)
board.cache_hierarchy.l1_icache.demandMshrMissLatency::processor.cores.core.inst    122937939                       # number of demand (read+write) MSHR miss ticks (Tick)
board.cache_hierarchy.l1_icache.demandMshrMissLatency::total    122937939                       # number of demand (read+write) MSHR miss ticks (Tick)
board.cache_hierarchy.l1_icache.overallMshrMissLatency::processor.cores.core.inst    122937939                       # number of overall MSHR miss ticks (Tick)
board.cache_hierarchy.l1_icache.overallMshrMissLatency::total    122937939                       # number of overall MSHR miss ticks (Tick)
board.cache_hierarchy.l1_icache.demandMshrMissRate::processor.cores.core.inst     0.000087                       # mshr miss ratio for demand accesses (Ratio)
board.cache_hierarchy.l1_icache.demandMshrMissRate::total     0.000087                       # mshr miss ratio for demand accesses (Ratio)
board.cache_hierarchy.l1_icache.overallMshrMissRate::processor.cores.core.inst     0.000087                       # mshr miss ratio for overall accesses (Ratio)
board.cache_hierarchy.l1_icache.overallMshrMissRate::total     0.000087                       # mshr miss ratio for overall accesses (Ratio)
board.cache_hierarchy.l1_icache.demandAvgMshrMissLatency::processor.cores.core.inst  8230.981454                       # average overall mshr miss latency ((Tick/Count))
board.cache_hierarchy.l1_icache.demandAvgMshrMissLatency::total  8230.981454                       # average overall mshr miss latency ((Tick/Count))
board.cache_hierarchy.l1_icache.overallAvgMshrMissLatency::processor.cores.core.inst  8230.981454                       # average overall mshr miss latency ((Tick/Count))
board.cache_hierarchy.l1_icache.overallAvgMshrMissLatency::total  8230.981454                       # average overall mshr miss latency ((Tick/Count))
board.cache_hierarchy.l1_icache.replacements        14872                       # number of replacements (Count)
board.cache_hierarchy.l1_icache.ReadReq.hits::processor.cores.core.inst    171693848                       # number of ReadReq hits (Count)
board.cache_hierarchy.l1_icache.ReadReq.hits::total    171693848                       # number of ReadReq hits (Count)
board.cache_hierarchy.l1_icache.ReadReq.misses::processor.cores.core.inst        14936                       # number of ReadReq misses (Count)
board.cache_hierarchy.l1_icache.ReadReq.misses::total        14936                       # number of ReadReq misses (Count)
board.cache_hierarchy.l1_icache.ReadReq.missLatency::processor.cores.core.inst    127911627                       # number of ReadReq miss ticks (Tick)
board.cache_hierarchy.l1_icache.ReadReq.missLatency::total    127911627                       # number of ReadReq miss ticks (Tick)
board.cache_hierarchy.l1_icache.ReadReq.accesses::processor.cores.core.inst    171708784                       # number of ReadReq accesses(hits+misses) (Count)
board.cache_hierarchy.l1_icache.ReadReq.accesses::total    171708784                       # number of ReadReq accesses(hits+misses) (Count)
board.cache_hierarchy.l1_icache.ReadReq.missRate::processor.cores.core.inst     0.000087                       # miss rate for ReadReq accesses (Ratio)
board.cache_hierarchy.l1_icache.ReadReq.missRate::total     0.000087                       # miss rate for ReadReq accesses (Ratio)
board.cache_hierarchy.l1_icache.ReadReq.avgMissLatency::processor.cores.core.inst  8563.981454                       # average ReadReq miss latency ((Tick/Count))
board.cache_hierarchy.l1_icache.ReadReq.avgMissLatency::total  8563.981454                       # average ReadReq miss latency ((Tick/Count))
board.cache_hierarchy.l1_icache.ReadReq.mshrMisses::processor.cores.core.inst        14936                       # number of ReadReq MSHR misses (Count)
board.cache_hierarchy.l1_icache.ReadReq.mshrMisses::total        14936                       # number of ReadReq MSHR misses (Count)
board.cache_hierarchy.l1_icache.ReadReq.mshrMissLatency::processor.cores.core.inst    122937939                       # number of ReadReq MSHR miss ticks (Tick)
board.cache_hierarchy.l1_icache.ReadReq.mshrMissLatency::total    122937939                       # number of ReadReq MSHR miss ticks (Tick)
board.cache_hierarchy.l1_icache.ReadReq.mshrMissRate::processor.cores.core.inst     0.000087                       # mshr miss rate for ReadReq accesses (Ratio)
board.cache_hierarchy.l1_icache.ReadReq.mshrMissRate::total     0.000087                       # mshr miss rate for ReadReq accesses (Ratio)
board.cache_hierarchy.l1_icache.ReadReq.avgMshrMissLatency::processor.cores.core.inst  8230.981454                       # average ReadReq mshr miss latency ((Tick/Count))
board.cache_hierarchy.l1_icache.ReadReq.avgMshrMissLatency::total  8230.981454                       # average ReadReq mshr miss latency ((Tick/Count))
board.cache_hierarchy.l1_icache.power_state.pwrStateResidencyTicks::UNDEFINED 164261521053                       # Cumulative time (in ticks) in various power states (Tick)
board.cache_hierarchy.l1_icache.prefetcher.demandMshrMisses        14936                       # demands not covered by prefetchs (Count)
board.cache_hierarchy.l1_icache.prefetcher.pfIssued            0                       # number of hwpf issued (Count)
board.cache_hierarchy.l1_icache.prefetcher.pfUseful            0                       # number of useful prefetch (Count)
board.cache_hierarchy.l1_icache.prefetcher.pfUsefulButMiss            0                       # number of hit on prefetch but cache block is not in an usable state (Count)
board.cache_hierarchy.l1_icache.prefetcher.accuracy          nan                       # accuracy of the prefetcher (Count)
board.cache_hierarchy.l1_icache.prefetcher.coverage            0                       # coverage brought by this prefetcher (Count)
board.cache_hierarchy.l1_icache.prefetcher.pfHitInCache            0                       # number of prefetches hitting in cache (Count)
board.cache_hierarchy.l1_icache.prefetcher.pfHitInMSHR            0                       # number of prefetches hitting in a MSHR (Count)
board.cache_hierarchy.l1_icache.prefetcher.pfHitInWB            0                       # number of prefetches hit in the Write Buffer (Count)
board.cache_hierarchy.l1_icache.prefetcher.pfLate            0                       # number of late prefetches (hitting in cache, MSHR or WB) (Count)
board.cache_hierarchy.l1_icache.prefetcher.pfIdentified            0                       # number of prefetch candidates identified (Count)
board.cache_hierarchy.l1_icache.prefetcher.pfBufferHit            0                       # number of redundant prefetches already in prefetch queue (Count)
board.cache_hierarchy.l1_icache.prefetcher.pfInCache            0                       # number of redundant prefetches already in cache/mshr dropped (Count)
board.cache_hierarchy.l1_icache.prefetcher.pfRemovedDemand            0                       # number of prefetches dropped due to a demand for the same address (Count)
board.cache_hierarchy.l1_icache.prefetcher.pfRemovedFull            0                       # number of prefetches dropped due to prefetch queue size (Count)
board.cache_hierarchy.l1_icache.prefetcher.pfSpanPage            0                       # number of prefetches that crossed the page (Count)
board.cache_hierarchy.l1_icache.prefetcher.pfUsefulSpanPage            0                       # number of prefetches that is useful and crossed the page (Count)
board.cache_hierarchy.l1_icache.prefetcher.power_state.pwrStateResidencyTicks::UNDEFINED 164261521053                       # Cumulative time (in ticks) in various power states (Tick)
board.cache_hierarchy.l1_icache.tags.tagsInUse    63.997630                       # Average ticks per tags in use ((Tick/Count))
board.cache_hierarchy.l1_icache.tags.totalRefs    171708784                       # Total number of references to valid blocks. (Count)
board.cache_hierarchy.l1_icache.tags.sampledRefs        14936                       # Sample count of references to valid blocks. (Count)
board.cache_hierarchy.l1_icache.tags.avgRefs 11496.303160                       # Average number of references to valid blocks. ((Count/Count))
board.cache_hierarchy.l1_icache.tags.warmupTick        73260                       # The tick when the warmup percentage was hit. (Tick)
board.cache_hierarchy.l1_icache.tags.occupancies::processor.cores.core.inst    63.997630                       # Average occupied blocks per tick, per requestor ((Count/Tick))
board.cache_hierarchy.l1_icache.tags.avgOccs::processor.cores.core.inst     0.999963                       # Average percentage of cache occupancy ((Ratio/Tick))
board.cache_hierarchy.l1_icache.tags.avgOccs::total     0.999963                       # Average percentage of cache occupancy ((Ratio/Tick))
board.cache_hierarchy.l1_icache.tags.occupanciesTaskId::1024           64                       # Occupied blocks per task id (Count)
board.cache_hierarchy.l1_icache.tags.ageTaskId_1024::0           49                       # Occupied blocks per task id, per block age (Count)
board.cache_hierarchy.l1_icache.tags.ageTaskId_1024::1            3                       # Occupied blocks per task id, per block age (Count)
board.cache_hierarchy.l1_icache.tags.ageTaskId_1024::2            4                       # Occupied blocks per task id, per block age (Count)
board.cache_hierarchy.l1_icache.tags.ageTaskId_1024::4            8                       # Occupied blocks per task id, per block age (Count)
board.cache_hierarchy.l1_icache.tags.ratioOccsTaskId::1024            1                       # Ratio of occupied blocks and all blocks, per task id (Ratio)
board.cache_hierarchy.l1_icache.tags.tagAccesses    171723720                       # Number of tag accesses (Count)
board.cache_hierarchy.l1_icache.tags.dataAccesses    171723720                       # Number of data accesses (Count)
board.cache_hierarchy.l1_icache.tags.power_state.pwrStateResidencyTicks::UNDEFINED 164261521053                       # Cumulative time (in ticks) in various power states (Tick)
board.cache_hierarchy.l2_cache.demandHits::cache_hierarchy.l1_dcache.prefetcher       821080                       # number of demand (read+write) hits (Count)
board.cache_hierarchy.l2_cache.demandHits::processor.cores.core.inst        13805                       # number of demand (read+write) hits (Count)
board.cache_hierarchy.l2_cache.demandHits::processor.cores.core.data     18803707                       # number of demand (read+write) hits (Count)
board.cache_hierarchy.l2_cache.demandHits::total     19638592                       # number of demand (read+write) hits (Count)
board.cache_hierarchy.l2_cache.overallHits::cache_hierarchy.l1_dcache.prefetcher       821080                       # number of overall hits (Count)
board.cache_hierarchy.l2_cache.overallHits::processor.cores.core.inst        13805                       # number of overall hits (Count)
board.cache_hierarchy.l2_cache.overallHits::processor.cores.core.data     18803707                       # number of overall hits (Count)
board.cache_hierarchy.l2_cache.overallHits::total     19638592                       # number of overall hits (Count)
board.cache_hierarchy.l2_cache.demandMisses::cache_hierarchy.l1_dcache.prefetcher         8805                       # number of demand (read+write) misses (Count)
board.cache_hierarchy.l2_cache.demandMisses::processor.cores.core.inst         1131                       # number of demand (read+write) misses (Count)
board.cache_hierarchy.l2_cache.demandMisses::processor.cores.core.data        22725                       # number of demand (read+write) misses (Count)
board.cache_hierarchy.l2_cache.demandMisses::total        32661                       # number of demand (read+write) misses (Count)
board.cache_hierarchy.l2_cache.overallMisses::cache_hierarchy.l1_dcache.prefetcher         8805                       # number of overall misses (Count)
board.cache_hierarchy.l2_cache.overallMisses::processor.cores.core.inst         1131                       # number of overall misses (Count)
board.cache_hierarchy.l2_cache.overallMisses::processor.cores.core.data        22725                       # number of overall misses (Count)
board.cache_hierarchy.l2_cache.overallMisses::total        32661                       # number of overall misses (Count)
board.cache_hierarchy.l2_cache.demandMissLatency::cache_hierarchy.l1_dcache.prefetcher    683255928                       # number of demand (read+write) miss ticks (Tick)
board.cache_hierarchy.l2_cache.demandMissLatency::processor.cores.core.inst     62322948                       # number of demand (read+write) miss ticks (Tick)
board.cache_hierarchy.l2_cache.demandMissLatency::processor.cores.core.data   1582295121                       # number of demand (read+write) miss ticks (Tick)
board.cache_hierarchy.l2_cache.demandMissLatency::total   2327873997                       # number of demand (read+write) miss ticks (Tick)
board.cache_hierarchy.l2_cache.overallMissLatency::cache_hierarchy.l1_dcache.prefetcher    683255928                       # number of overall miss ticks (Tick)
board.cache_hierarchy.l2_cache.overallMissLatency::processor.cores.core.inst     62322948                       # number of overall miss ticks (Tick)
board.cache_hierarchy.l2_cache.overallMissLatency::processor.cores.core.data   1582295121                       # number of overall miss ticks (Tick)
board.cache_hierarchy.l2_cache.overallMissLatency::total   2327873997                       # number of overall miss ticks (Tick)
board.cache_hierarchy.l2_cache.demandAccesses::cache_hierarchy.l1_dcache.prefetcher       829885                       # number of demand (read+write) accesses (Count)
board.cache_hierarchy.l2_cache.demandAccesses::processor.cores.core.inst        14936                       # number of demand (read+write) accesses (Count)
board.cache_hierarchy.l2_cache.demandAccesses::processor.cores.core.data     18826432                       # number of demand (read+write) accesses (Count)
board.cache_hierarchy.l2_cache.demandAccesses::total     19671253                       # number of demand (read+write) accesses (Count)
board.cache_hierarchy.l2_cache.overallAccesses::cache_hierarchy.l1_dcache.prefetcher       829885                       # number of overall (read+write) accesses (Count)
board.cache_hierarchy.l2_cache.overallAccesses::processor.cores.core.inst        14936                       # number of overall (read+write) accesses (Count)
board.cache_hierarchy.l2_cache.overallAccesses::processor.cores.core.data     18826432                       # number of overall (read+write) accesses (Count)
board.cache_hierarchy.l2_cache.overallAccesses::total     19671253                       # number of overall (read+write) accesses (Count)
board.cache_hierarchy.l2_cache.demandMissRate::cache_hierarchy.l1_dcache.prefetcher     0.010610                       # miss rate for demand accesses (Ratio)
board.cache_hierarchy.l2_cache.demandMissRate::processor.cores.core.inst     0.075723                       # miss rate for demand accesses (Ratio)
board.cache_hierarchy.l2_cache.demandMissRate::processor.cores.core.data     0.001207                       # miss rate for demand accesses (Ratio)
board.cache_hierarchy.l2_cache.demandMissRate::total     0.001660                       # miss rate for demand accesses (Ratio)
board.cache_hierarchy.l2_cache.overallMissRate::cache_hierarchy.l1_dcache.prefetcher     0.010610                       # miss rate for overall accesses (Ratio)
board.cache_hierarchy.l2_cache.overallMissRate::processor.cores.core.inst     0.075723                       # miss rate for overall accesses (Ratio)
board.cache_hierarchy.l2_cache.overallMissRate::processor.cores.core.data     0.001207                       # miss rate for overall accesses (Ratio)
board.cache_hierarchy.l2_cache.overallMissRate::total     0.001660                       # miss rate for overall accesses (Ratio)
board.cache_hierarchy.l2_cache.demandAvgMissLatency::cache_hierarchy.l1_dcache.prefetcher 77598.628961                       # average overall miss latency in ticks ((Tick/Count))
board.cache_hierarchy.l2_cache.demandAvgMissLatency::processor.cores.core.inst 55104.286472                       # average overall miss latency in ticks ((Tick/Count))
board.cache_hierarchy.l2_cache.demandAvgMissLatency::processor.cores.core.data 69627.948119                       # average overall miss latency in ticks ((Tick/Count))
board.cache_hierarchy.l2_cache.demandAvgMissLatency::total 71273.812712                       # average overall miss latency in ticks ((Tick/Count))
board.cache_hierarchy.l2_cache.overallAvgMissLatency::cache_hierarchy.l1_dcache.prefetcher 77598.628961                       # average overall miss latency ((Tick/Count))
board.cache_hierarchy.l2_cache.overallAvgMissLatency::processor.cores.core.inst 55104.286472                       # average overall miss latency ((Tick/Count))
board.cache_hierarchy.l2_cache.overallAvgMissLatency::processor.cores.core.data 69627.948119                       # average overall miss latency ((Tick/Count))
board.cache_hierarchy.l2_cache.overallAvgMissLatency::total 71273.812712                       # average overall miss latency ((Tick/Count))
board.cache_hierarchy.l2_cache.blockedCycles::no_mshrs            0                       # number of cycles access was blocked (Cycle)
board.cache_hierarchy.l2_cache.blockedCycles::no_targets            0                       # number of cycles access was blocked (Cycle)
board.cache_hierarchy.l2_cache.blockedCauses::no_mshrs            0                       # number of times access was blocked (Count)
board.cache_hierarchy.l2_cache.blockedCauses::no_targets            0                       # number of times access was blocked (Count)
board.cache_hierarchy.l2_cache.avgBlocked::no_mshrs          nan                       # average number of cycles each access was blocked ((Cycle/Count))
board.cache_hierarchy.l2_cache.avgBlocked::no_targets          nan                       # average number of cycles each access was blocked ((Cycle/Count))
board.cache_hierarchy.l2_cache.writebacks::writebacks        17190                       # number of writebacks (Count)
board.cache_hierarchy.l2_cache.writebacks::total        17190                       # number of writebacks (Count)
board.cache_hierarchy.l2_cache.demandMshrHits::cache_hierarchy.l1_dcache.prefetcher         7197                       # number of demand (read+write) MSHR hits (Count)
board.cache_hierarchy.l2_cache.demandMshrHits::processor.cores.core.data            1                       # number of demand (read+write) MSHR hits (Count)
board.cache_hierarchy.l2_cache.demandMshrHits::total         7198                       # number of demand (read+write) MSHR hits (Count)
board.cache_hierarchy.l2_cache.overallMshrHits::cache_hierarchy.l1_dcache.prefetcher         7197                       # number of overall MSHR hits (Count)
board.cache_hierarchy.l2_cache.overallMshrHits::processor.cores.core.data            1                       # number of overall MSHR hits (Count)
board.cache_hierarchy.l2_cache.overallMshrHits::total         7198                       # number of overall MSHR hits (Count)
board.cache_hierarchy.l2_cache.demandMshrMisses::cache_hierarchy.l1_dcache.prefetcher         1608                       # number of demand (read+write) MSHR misses (Count)
board.cache_hierarchy.l2_cache.demandMshrMisses::processor.cores.core.inst         1131                       # number of demand (read+write) MSHR misses (Count)
board.cache_hierarchy.l2_cache.demandMshrMisses::processor.cores.core.data        22724                       # number of demand (read+write) MSHR misses (Count)
board.cache_hierarchy.l2_cache.demandMshrMisses::total        25463                       # number of demand (read+write) MSHR misses (Count)
board.cache_hierarchy.l2_cache.overallMshrMisses::cache_hierarchy.l1_dcache.prefetcher         1608                       # number of overall MSHR misses (Count)
board.cache_hierarchy.l2_cache.overallMshrMisses::cache_hierarchy.l2_cache.prefetcher        21620                       # number of overall MSHR misses (Count)
board.cache_hierarchy.l2_cache.overallMshrMisses::processor.cores.core.inst         1131                       # number of overall MSHR misses (Count)
board.cache_hierarchy.l2_cache.overallMshrMisses::processor.cores.core.data        22724                       # number of overall MSHR misses (Count)
board.cache_hierarchy.l2_cache.overallMshrMisses::total        47083                       # number of overall MSHR misses (Count)
board.cache_hierarchy.l2_cache.demandMshrMissLatency::cache_hierarchy.l1_dcache.prefetcher    166032708                       # number of demand (read+write) MSHR miss ticks (Tick)
board.cache_hierarchy.l2_cache.demandMshrMissLatency::processor.cores.core.inst     58556718                       # number of demand (read+write) MSHR miss ticks (Tick)
board.cache_hierarchy.l2_cache.demandMshrMissLatency::processor.cores.core.data   1506438720                       # number of demand (read+write) MSHR miss ticks (Tick)
board.cache_hierarchy.l2_cache.demandMshrMissLatency::total   1731028146                       # number of demand (read+write) MSHR miss ticks (Tick)
board.cache_hierarchy.l2_cache.overallMshrMissLatency::cache_hierarchy.l1_dcache.prefetcher    166032708                       # number of overall MSHR miss ticks (Tick)
board.cache_hierarchy.l2_cache.overallMshrMissLatency::cache_hierarchy.l2_cache.prefetcher   1880855160                       # number of overall MSHR miss ticks (Tick)
board.cache_hierarchy.l2_cache.overallMshrMissLatency::processor.cores.core.inst     58556718                       # number of overall MSHR miss ticks (Tick)
board.cache_hierarchy.l2_cache.overallMshrMissLatency::processor.cores.core.data   1506438720                       # number of overall MSHR miss ticks (Tick)
board.cache_hierarchy.l2_cache.overallMshrMissLatency::total   3611883306                       # number of overall MSHR miss ticks (Tick)
board.cache_hierarchy.l2_cache.demandMshrMissRate::cache_hierarchy.l1_dcache.prefetcher     0.001938                       # mshr miss ratio for demand accesses (Ratio)
board.cache_hierarchy.l2_cache.demandMshrMissRate::processor.cores.core.inst     0.075723                       # mshr miss ratio for demand accesses (Ratio)
board.cache_hierarchy.l2_cache.demandMshrMissRate::processor.cores.core.data     0.001207                       # mshr miss ratio for demand accesses (Ratio)
board.cache_hierarchy.l2_cache.demandMshrMissRate::total     0.001294                       # mshr miss ratio for demand accesses (Ratio)
board.cache_hierarchy.l2_cache.overallMshrMissRate::cache_hierarchy.l1_dcache.prefetcher     0.001938                       # mshr miss ratio for overall accesses (Ratio)
board.cache_hierarchy.l2_cache.overallMshrMissRate::cache_hierarchy.l2_cache.prefetcher          inf                       # mshr miss ratio for overall accesses (Ratio)
board.cache_hierarchy.l2_cache.overallMshrMissRate::processor.cores.core.inst     0.075723                       # mshr miss ratio for overall accesses (Ratio)
board.cache_hierarchy.l2_cache.overallMshrMissRate::processor.cores.core.data     0.001207                       # mshr miss ratio for overall accesses (Ratio)
board.cache_hierarchy.l2_cache.overallMshrMissRate::total     0.002393                       # mshr miss ratio for overall accesses (Ratio)
board.cache_hierarchy.l2_cache.demandAvgMshrMissLatency::cache_hierarchy.l1_dcache.prefetcher 103254.171642                       # average overall mshr miss latency ((Tick/Count))
board.cache_hierarchy.l2_cache.demandAvgMshrMissLatency::processor.cores.core.inst 51774.286472                       # average overall mshr miss latency ((Tick/Count))
board.cache_hierarchy.l2_cache.demandAvgMshrMissLatency::processor.cores.core.data 66292.849850                       # average overall mshr miss latency ((Tick/Count))
board.cache_hierarchy.l2_cache.demandAvgMshrMissLatency::total 67982.097396                       # average overall mshr miss latency ((Tick/Count))
board.cache_hierarchy.l2_cache.overallAvgMshrMissLatency::cache_hierarchy.l1_dcache.prefetcher 103254.171642                       # average overall mshr miss latency ((Tick/Count))
board.cache_hierarchy.l2_cache.overallAvgMshrMissLatency::cache_hierarchy.l2_cache.prefetcher 86996.075856                       # average overall mshr miss latency ((Tick/Count))
board.cache_hierarchy.l2_cache.overallAvgMshrMissLatency::processor.cores.core.inst 51774.286472                       # average overall mshr miss latency ((Tick/Count))
board.cache_hierarchy.l2_cache.overallAvgMshrMissLatency::processor.cores.core.data 66292.849850                       # average overall mshr miss latency ((Tick/Count))
board.cache_hierarchy.l2_cache.overallAvgMshrMissLatency::total 76713.108893                       # average overall mshr miss latency ((Tick/Count))
board.cache_hierarchy.l2_cache.replacements        42987                       # number of replacements (Count)
board.cache_hierarchy.l2_cache.CleanEvict.mshrMisses::writebacks           65                       # number of CleanEvict MSHR misses (Count)
board.cache_hierarchy.l2_cache.CleanEvict.mshrMisses::total           65                       # number of CleanEvict MSHR misses (Count)
board.cache_hierarchy.l2_cache.CleanEvict.mshrMissRate::writebacks          inf                       # mshr miss rate for CleanEvict accesses (Ratio)
board.cache_hierarchy.l2_cache.CleanEvict.mshrMissRate::total          inf                       # mshr miss rate for CleanEvict accesses (Ratio)
board.cache_hierarchy.l2_cache.HardPFReq.mshrMisses::cache_hierarchy.l2_cache.prefetcher        21620                       # number of HardPFReq MSHR misses (Count)
board.cache_hierarchy.l2_cache.HardPFReq.mshrMisses::total        21620                       # number of HardPFReq MSHR misses (Count)
board.cache_hierarchy.l2_cache.HardPFReq.mshrMissLatency::cache_hierarchy.l2_cache.prefetcher   1880855160                       # number of HardPFReq MSHR miss ticks (Tick)
board.cache_hierarchy.l2_cache.HardPFReq.mshrMissLatency::total   1880855160                       # number of HardPFReq MSHR miss ticks (Tick)
board.cache_hierarchy.l2_cache.HardPFReq.mshrMissRate::cache_hierarchy.l2_cache.prefetcher          inf                       # mshr miss rate for HardPFReq accesses (Ratio)
board.cache_hierarchy.l2_cache.HardPFReq.mshrMissRate::total          inf                       # mshr miss rate for HardPFReq accesses (Ratio)
board.cache_hierarchy.l2_cache.HardPFReq.avgMshrMissLatency::cache_hierarchy.l2_cache.prefetcher 86996.075856                       # average HardPFReq mshr miss latency ((Tick/Count))
board.cache_hierarchy.l2_cache.HardPFReq.avgMshrMissLatency::total 86996.075856                       # average HardPFReq mshr miss latency ((Tick/Count))
board.cache_hierarchy.l2_cache.ReadExReq.hits::processor.cores.core.data       524983                       # number of ReadExReq hits (Count)
board.cache_hierarchy.l2_cache.ReadExReq.hits::total       524983                       # number of ReadExReq hits (Count)
board.cache_hierarchy.l2_cache.ReadExReq.misses::processor.cores.core.data         1580                       # number of ReadExReq misses (Count)
board.cache_hierarchy.l2_cache.ReadExReq.misses::total         1580                       # number of ReadExReq misses (Count)
board.cache_hierarchy.l2_cache.ReadExReq.missLatency::processor.cores.core.data    135517014                       # number of ReadExReq miss ticks (Tick)
board.cache_hierarchy.l2_cache.ReadExReq.missLatency::total    135517014                       # number of ReadExReq miss ticks (Tick)
board.cache_hierarchy.l2_cache.ReadExReq.accesses::processor.cores.core.data       526563                       # number of ReadExReq accesses(hits+misses) (Count)
board.cache_hierarchy.l2_cache.ReadExReq.accesses::total       526563                       # number of ReadExReq accesses(hits+misses) (Count)
board.cache_hierarchy.l2_cache.ReadExReq.missRate::processor.cores.core.data     0.003001                       # miss rate for ReadExReq accesses (Ratio)
board.cache_hierarchy.l2_cache.ReadExReq.missRate::total     0.003001                       # miss rate for ReadExReq accesses (Ratio)
board.cache_hierarchy.l2_cache.ReadExReq.avgMissLatency::processor.cores.core.data 85770.262025                       # average ReadExReq miss latency ((Tick/Count))
board.cache_hierarchy.l2_cache.ReadExReq.avgMissLatency::total 85770.262025                       # average ReadExReq miss latency ((Tick/Count))
board.cache_hierarchy.l2_cache.ReadExReq.mshrMisses::processor.cores.core.data         1580                       # number of ReadExReq MSHR misses (Count)
board.cache_hierarchy.l2_cache.ReadExReq.mshrMisses::total         1580                       # number of ReadExReq MSHR misses (Count)
board.cache_hierarchy.l2_cache.ReadExReq.mshrMissLatency::processor.cores.core.data    130255614                       # number of ReadExReq MSHR miss ticks (Tick)
board.cache_hierarchy.l2_cache.ReadExReq.mshrMissLatency::total    130255614                       # number of ReadExReq MSHR miss ticks (Tick)
board.cache_hierarchy.l2_cache.ReadExReq.mshrMissRate::processor.cores.core.data     0.003001                       # mshr miss rate for ReadExReq accesses (Ratio)
board.cache_hierarchy.l2_cache.ReadExReq.mshrMissRate::total     0.003001                       # mshr miss rate for ReadExReq accesses (Ratio)
board.cache_hierarchy.l2_cache.ReadExReq.avgMshrMissLatency::processor.cores.core.data 82440.262025                       # average ReadExReq mshr miss latency ((Tick/Count))
board.cache_hierarchy.l2_cache.ReadExReq.avgMshrMissLatency::total 82440.262025                       # average ReadExReq mshr miss latency ((Tick/Count))
board.cache_hierarchy.l2_cache.ReadSharedReq.hits::cache_hierarchy.l1_dcache.prefetcher       821080                       # number of ReadSharedReq hits (Count)
board.cache_hierarchy.l2_cache.ReadSharedReq.hits::processor.cores.core.inst        13805                       # number of ReadSharedReq hits (Count)
board.cache_hierarchy.l2_cache.ReadSharedReq.hits::processor.cores.core.data     18278724                       # number of ReadSharedReq hits (Count)
board.cache_hierarchy.l2_cache.ReadSharedReq.hits::total     19113609                       # number of ReadSharedReq hits (Count)
board.cache_hierarchy.l2_cache.ReadSharedReq.misses::cache_hierarchy.l1_dcache.prefetcher         8805                       # number of ReadSharedReq misses (Count)
board.cache_hierarchy.l2_cache.ReadSharedReq.misses::processor.cores.core.inst         1131                       # number of ReadSharedReq misses (Count)
board.cache_hierarchy.l2_cache.ReadSharedReq.misses::processor.cores.core.data        21145                       # number of ReadSharedReq misses (Count)
board.cache_hierarchy.l2_cache.ReadSharedReq.misses::total        31081                       # number of ReadSharedReq misses (Count)
board.cache_hierarchy.l2_cache.ReadSharedReq.missLatency::cache_hierarchy.l1_dcache.prefetcher    683255928                       # number of ReadSharedReq miss ticks (Tick)
board.cache_hierarchy.l2_cache.ReadSharedReq.missLatency::processor.cores.core.inst     62322948                       # number of ReadSharedReq miss ticks (Tick)
board.cache_hierarchy.l2_cache.ReadSharedReq.missLatency::processor.cores.core.data   1446778107                       # number of ReadSharedReq miss ticks (Tick)
board.cache_hierarchy.l2_cache.ReadSharedReq.missLatency::total   2192356983                       # number of ReadSharedReq miss ticks (Tick)
board.cache_hierarchy.l2_cache.ReadSharedReq.accesses::cache_hierarchy.l1_dcache.prefetcher       829885                       # number of ReadSharedReq accesses(hits+misses) (Count)
board.cache_hierarchy.l2_cache.ReadSharedReq.accesses::processor.cores.core.inst        14936                       # number of ReadSharedReq accesses(hits+misses) (Count)
board.cache_hierarchy.l2_cache.ReadSharedReq.accesses::processor.cores.core.data     18299869                       # number of ReadSharedReq accesses(hits+misses) (Count)
board.cache_hierarchy.l2_cache.ReadSharedReq.accesses::total     19144690                       # number of ReadSharedReq accesses(hits+misses) (Count)
board.cache_hierarchy.l2_cache.ReadSharedReq.missRate::cache_hierarchy.l1_dcache.prefetcher     0.010610                       # miss rate for ReadSharedReq accesses (Ratio)
board.cache_hierarchy.l2_cache.ReadSharedReq.missRate::processor.cores.core.inst     0.075723                       # miss rate for ReadSharedReq accesses (Ratio)
board.cache_hierarchy.l2_cache.ReadSharedReq.missRate::processor.cores.core.data     0.001155                       # miss rate for ReadSharedReq accesses (Ratio)
board.cache_hierarchy.l2_cache.ReadSharedReq.missRate::total     0.001623                       # miss rate for ReadSharedReq accesses (Ratio)
board.cache_hierarchy.l2_cache.ReadSharedReq.avgMissLatency::cache_hierarchy.l1_dcache.prefetcher 77598.628961                       # average ReadSharedReq miss latency ((Tick/Count))
board.cache_hierarchy.l2_cache.ReadSharedReq.avgMissLatency::processor.cores.core.inst 55104.286472                       # average ReadSharedReq miss latency ((Tick/Count))
board.cache_hierarchy.l2_cache.ReadSharedReq.avgMissLatency::processor.cores.core.data 68421.759612                       # average ReadSharedReq miss latency ((Tick/Count))
board.cache_hierarchy.l2_cache.ReadSharedReq.avgMissLatency::total 70536.886941                       # average ReadSharedReq miss latency ((Tick/Count))
board.cache_hierarchy.l2_cache.ReadSharedReq.mshrHits::cache_hierarchy.l1_dcache.prefetcher         7197                       # number of ReadSharedReq MSHR hits (Count)
board.cache_hierarchy.l2_cache.ReadSharedReq.mshrHits::processor.cores.core.data            1                       # number of ReadSharedReq MSHR hits (Count)
board.cache_hierarchy.l2_cache.ReadSharedReq.mshrHits::total         7198                       # number of ReadSharedReq MSHR hits (Count)
board.cache_hierarchy.l2_cache.ReadSharedReq.mshrMisses::cache_hierarchy.l1_dcache.prefetcher         1608                       # number of ReadSharedReq MSHR misses (Count)
board.cache_hierarchy.l2_cache.ReadSharedReq.mshrMisses::processor.cores.core.inst         1131                       # number of ReadSharedReq MSHR misses (Count)
board.cache_hierarchy.l2_cache.ReadSharedReq.mshrMisses::processor.cores.core.data        21144                       # number of ReadSharedReq MSHR misses (Count)
board.cache_hierarchy.l2_cache.ReadSharedReq.mshrMisses::total        23883                       # number of ReadSharedReq MSHR misses (Count)
board.cache_hierarchy.l2_cache.ReadSharedReq.mshrMissLatency::cache_hierarchy.l1_dcache.prefetcher    166032708                       # number of ReadSharedReq MSHR miss ticks (Tick)
board.cache_hierarchy.l2_cache.ReadSharedReq.mshrMissLatency::processor.cores.core.inst     58556718                       # number of ReadSharedReq MSHR miss ticks (Tick)
board.cache_hierarchy.l2_cache.ReadSharedReq.mshrMissLatency::processor.cores.core.data   1376183106                       # number of ReadSharedReq MSHR miss ticks (Tick)
board.cache_hierarchy.l2_cache.ReadSharedReq.mshrMissLatency::total   1600772532                       # number of ReadSharedReq MSHR miss ticks (Tick)
board.cache_hierarchy.l2_cache.ReadSharedReq.mshrMissRate::cache_hierarchy.l1_dcache.prefetcher     0.001938                       # mshr miss rate for ReadSharedReq accesses (Ratio)
board.cache_hierarchy.l2_cache.ReadSharedReq.mshrMissRate::processor.cores.core.inst     0.075723                       # mshr miss rate for ReadSharedReq accesses (Ratio)
board.cache_hierarchy.l2_cache.ReadSharedReq.mshrMissRate::processor.cores.core.data     0.001155                       # mshr miss rate for ReadSharedReq accesses (Ratio)
board.cache_hierarchy.l2_cache.ReadSharedReq.mshrMissRate::total     0.001247                       # mshr miss rate for ReadSharedReq accesses (Ratio)
board.cache_hierarchy.l2_cache.ReadSharedReq.avgMshrMissLatency::cache_hierarchy.l1_dcache.prefetcher 103254.171642                       # average ReadSharedReq mshr miss latency ((Tick/Count))
board.cache_hierarchy.l2_cache.ReadSharedReq.avgMshrMissLatency::processor.cores.core.inst 51774.286472                       # average ReadSharedReq mshr miss latency ((Tick/Count))
board.cache_hierarchy.l2_cache.ReadSharedReq.avgMshrMissLatency::processor.cores.core.data 65086.223326                       # average ReadSharedReq mshr miss latency ((Tick/Count))
board.cache_hierarchy.l2_cache.ReadSharedReq.avgMshrMissLatency::total 67025.605326                       # average ReadSharedReq mshr miss latency ((Tick/Count))
board.cache_hierarchy.l2_cache.WritebackDirty.hits::writebacks       617256                       # number of WritebackDirty hits (Count)
board.cache_hierarchy.l2_cache.WritebackDirty.hits::total       617256                       # number of WritebackDirty hits (Count)
board.cache_hierarchy.l2_cache.WritebackDirty.accesses::writebacks       617256                       # number of WritebackDirty accesses(hits+misses) (Count)
board.cache_hierarchy.l2_cache.WritebackDirty.accesses::total       617256                       # number of WritebackDirty accesses(hits+misses) (Count)
board.cache_hierarchy.l2_cache.power_state.pwrStateResidencyTicks::UNDEFINED 164261521053                       # Cumulative time (in ticks) in various power states (Tick)
board.cache_hierarchy.l2_cache.prefetcher.demandMshrMisses        25463                       # demands not covered by prefetchs (Count)
board.cache_hierarchy.l2_cache.prefetcher.pfIssued        74225                       # number of hwpf issued (Count)
board.cache_hierarchy.l2_cache.prefetcher.pfUnused         1434                       # number of HardPF blocks evicted w/o reference (Count)
board.cache_hierarchy.l2_cache.prefetcher.pfUseful        12981                       # number of useful prefetch (Count)
board.cache_hierarchy.l2_cache.prefetcher.pfUsefulButMiss            0                       # number of hit on prefetch but cache block is not in an usable state (Count)
board.cache_hierarchy.l2_cache.prefetcher.accuracy     0.174887                       # accuracy of the prefetcher (Count)
board.cache_hierarchy.l2_cache.prefetcher.coverage     0.337660                       # coverage brought by this prefetcher (Count)
board.cache_hierarchy.l2_cache.prefetcher.pfHitInCache        31642                       # number of prefetches hitting in cache (Count)
board.cache_hierarchy.l2_cache.prefetcher.pfHitInMSHR        20963                       # number of prefetches hitting in a MSHR (Count)
board.cache_hierarchy.l2_cache.prefetcher.pfHitInWB            0                       # number of prefetches hit in the Write Buffer (Count)
board.cache_hierarchy.l2_cache.prefetcher.pfLate        52605                       # number of late prefetches (hitting in cache, MSHR or WB) (Count)
board.cache_hierarchy.l2_cache.prefetcher.pfIdentified        84533                       # number of prefetch candidates identified (Count)
board.cache_hierarchy.l2_cache.prefetcher.pfBufferHit         6453                       # number of redundant prefetches already in prefetch queue (Count)
board.cache_hierarchy.l2_cache.prefetcher.pfInCache            0                       # number of redundant prefetches already in cache/mshr dropped (Count)
board.cache_hierarchy.l2_cache.prefetcher.pfRemovedDemand         2572                       # number of prefetches dropped due to a demand for the same address (Count)
board.cache_hierarchy.l2_cache.prefetcher.pfRemovedFull            0                       # number of prefetches dropped due to prefetch queue size (Count)
board.cache_hierarchy.l2_cache.prefetcher.pfSpanPage        71947                       # number of prefetches that crossed the page (Count)
board.cache_hierarchy.l2_cache.prefetcher.pfUsefulSpanPage         3212                       # number of prefetches that is useful and crossed the page (Count)
board.cache_hierarchy.l2_cache.prefetcher.power_state.pwrStateResidencyTicks::UNDEFINED 164261521053                       # Cumulative time (in ticks) in various power states (Tick)
board.cache_hierarchy.l2_cache.tags.tagsInUse  4091.370445                       # Average ticks per tags in use ((Tick/Count))
board.cache_hierarchy.l2_cache.tags.totalRefs     39356735                       # Total number of references to valid blocks. (Count)
board.cache_hierarchy.l2_cache.tags.sampledRefs        47083                       # Sample count of references to valid blocks. (Count)
board.cache_hierarchy.l2_cache.tags.avgRefs   835.901175                       # Average number of references to valid blocks. ((Count/Count))
board.cache_hierarchy.l2_cache.tags.warmupTick        69597                       # The tick when the warmup percentage was hit. (Tick)
board.cache_hierarchy.l2_cache.tags.occupancies::cache_hierarchy.l1_dcache.prefetcher   155.849859                       # Average occupied blocks per tick, per requestor ((Count/Tick))
board.cache_hierarchy.l2_cache.tags.occupancies::cache_hierarchy.l2_cache.prefetcher  2518.827065                       # Average occupied blocks per tick, per requestor ((Count/Tick))
board.cache_hierarchy.l2_cache.tags.occupancies::processor.cores.core.inst     3.043215                       # Average occupied blocks per tick, per requestor ((Count/Tick))
board.cache_hierarchy.l2_cache.tags.occupancies::processor.cores.core.data  1413.650305                       # Average occupied blocks per tick, per requestor ((Count/Tick))
board.cache_hierarchy.l2_cache.tags.avgOccs::cache_hierarchy.l1_dcache.prefetcher     0.038049                       # Average percentage of cache occupancy ((Ratio/Tick))
board.cache_hierarchy.l2_cache.tags.avgOccs::cache_hierarchy.l2_cache.prefetcher     0.614948                       # Average percentage of cache occupancy ((Ratio/Tick))
board.cache_hierarchy.l2_cache.tags.avgOccs::processor.cores.core.inst     0.000743                       # Average percentage of cache occupancy ((Ratio/Tick))
board.cache_hierarchy.l2_cache.tags.avgOccs::processor.cores.core.data     0.345129                       # Average percentage of cache occupancy ((Ratio/Tick))
board.cache_hierarchy.l2_cache.tags.avgOccs::total     0.998870                       # Average percentage of cache occupancy ((Ratio/Tick))
board.cache_hierarchy.l2_cache.tags.occupanciesTaskId::1022         2227                       # Occupied blocks per task id (Count)
[...]
board.processor.cores.core.commitStats0.numOpsNotNOP            0                       # Number of Ops (including micro ops) Simulated (Count)
board.processor.cores.core.commitStats0.cpi     3.581421                       # CPI: cycles per instruction (thread level) ((Cycle/Count))
board.processor.cores.core.commitStats0.ipc     0.279219                       # IPC: instructions per cycle (thread level) ((Count/Cycle))
board.processor.cores.core.commitStats0.numMemRefs            0                       # Number of memory references committed (Count)
board.processor.cores.core.commitStats0.numFpInsts       281462                       # Number of float instructions (Count)
board.processor.cores.core.commitStats0.numIntInsts    239951367                       # Number of integer instructions (Count)
board.processor.cores.core.commitStats0.numLoadInsts     51244024                       # Number of load instructions (Count)
board.processor.cores.core.commitStats0.numStoreInsts     16932850                       # Number of store instructions (Count)
board.processor.cores.core.commitStats0.numVecInsts            0                       # Number of vector instructions (Count)
board.processor.cores.core.commitStats0.committedInstType::No_OpClass       271934      0.11%      0.11% # Class of committed instruction. (Count)
board.processor.cores.core.commitStats0.committedInstType::IntAlu    155125904     64.51%     64.62% # Class of committed instruction. (Count)
board.processor.cores.core.commitStats0.committedInstType::IntMult     16777904      6.98%     71.60% # Class of committed instruction. (Count)
board.processor.cores.core.commitStats0.committedInstType::IntDiv         1407      0.00%     71.60% # Class of committed instruction. (Count)
board.processor.cores.core.commitStats0.committedInstType::FloatAdd         2169      0.00%     71.60% # Class of committed instruction. (Count)
board.processor.cores.core.commitStats0.committedInstType::FloatCmp            0      0.00%     71.60% # Class of committed instruction. (Count)
board.processor.cores.core.commitStats0.committedInstType::FloatCvt            0      0.00%     71.60% # Class of committed instruction. (Count)
board.processor.cores.core.commitStats0.committedInstType::FloatMult            0      0.00%     71.60% # Class of committed instruction. (Count)
board.processor.cores.core.commitStats0.committedInstType::FloatMultAcc            0      0.00%     71.60% # Class of committed instruction. (Count)
board.processor.cores.core.commitStats0.committedInstType::FloatDiv            0      0.00%     71.60% # Class of committed instruction. (Count)
board.processor.cores.core.commitStats0.committedInstType::FloatMisc            0      0.00%     71.60% # Class of committed instruction. (Count)
board.processor.cores.core.commitStats0.committedInstType::FloatSqrt            0      0.00%     71.60% # Class of committed instruction. (Count)
board.processor.cores.core.commitStats0.committedInstType::SimdAdd        98698      0.04%     71.64% # Class of committed instruction. (Count)
board.processor.cores.core.commitStats0.committedInstType::SimdAddAcc            0      0.00%     71.64% # Class of committed instruction. (Count)
board.processor.cores.core.commitStats0.committedInstType::SimdAlu         2380      0.00%     71.65% # Class of committed instruction. (Count)
board.processor.cores.core.commitStats0.committedInstType::SimdCmp            0      0.00%     71.65% # Class of committed instruction. (Count)
board.processor.cores.core.commitStats0.committedInstType::SimdCvt          896      0.00%     71.65% # Class of committed instruction. (Count)
board.processor.cores.core.commitStats0.committedInstType::SimdMisc         3994      0.00%     71.65% # Class of committed instruction. (Count)
board.processor.cores.core.commitStats0.committedInstType::SimdMult            0      0.00%     71.65% # Class of committed instruction. (Count)
board.processor.cores.core.commitStats0.committedInstType::SimdMultAcc            0      0.00%     71.65% # Class of committed instruction. (Count)
board.processor.cores.core.commitStats0.committedInstType::SimdMatMultAcc            0      0.00%     71.65% # Class of committed instruction. (Count)
board.processor.cores.core.commitStats0.committedInstType::SimdShift          200      0.00%     71.65% # Class of committed instruction. (Count)
board.processor.cores.core.commitStats0.committedInstType::SimdShiftAcc            0      0.00%     71.65% # Class of committed instruction. (Count)
board.processor.cores.core.commitStats0.committedInstType::SimdDiv            0      0.00%     71.65% # Class of committed instruction. (Count)
board.processor.cores.core.commitStats0.committedInstType::SimdSqrt            0      0.00%     71.65% # Class of committed instruction. (Count)
board.processor.cores.core.commitStats0.committedInstType::SimdFloatAdd            0      0.00%     71.65% # Class of committed instruction. (Count)
board.processor.cores.core.commitStats0.committedInstType::SimdFloatAlu            0      0.00%     71.65% # Class of committed instruction. (Count)
board.processor.cores.core.commitStats0.committedInstType::SimdFloatCmp            0      0.00%     71.65% # Class of committed instruction. (Count)
board.processor.cores.core.commitStats0.committedInstType::SimdFloatCvt            0      0.00%     71.65% # Class of committed instruction. (Count)
board.processor.cores.core.commitStats0.committedInstType::SimdFloatDiv            0      0.00%     71.65% # Class of committed instruction. (Count)
board.processor.cores.core.commitStats0.committedInstType::SimdFloatMisc            0      0.00%     71.65% # Class of committed instruction. (Count)
board.processor.cores.core.commitStats0.committedInstType::SimdFloatMult            0      0.00%     71.65% # Class of committed instruction. (Count)
board.processor.cores.core.commitStats0.committedInstType::SimdFloatMultAcc            0      0.00%     71.65% # Class of committed instruction. (Count)
board.processor.cores.core.commitStats0.committedInstType::SimdFloatMatMultAcc            0      0.00%     71.65% # Class of committed instruction. (Count)
board.processor.cores.core.commitStats0.committedInstType::SimdFloatSqrt            0      0.00%     71.65% # Class of committed instruction. (Count)
board.processor.cores.core.commitStats0.committedInstType::SimdReduceAdd            0      0.00%     71.65% # Class of committed instruction. (Count)
board.processor.cores.core.commitStats0.committedInstType::SimdReduceAlu            0      0.00%     71.65% # Class of committed instruction. (Count)
board.processor.cores.core.commitStats0.committedInstType::SimdReduceCmp            0      0.00%     71.65% # Class of committed instruction. (Count)
board.processor.cores.core.commitStats0.committedInstType::SimdFloatReduceAdd            0      0.00%     71.65% # Class of committed instruction. (Count)
board.processor.cores.core.commitStats0.committedInstType::SimdFloatReduceCmp            0      0.00%     71.65% # Class of committed instruction. (Count)
board.processor.cores.core.commitStats0.committedInstType::SimdAes            0      0.00%     71.65% # Class of committed instruction. (Count)
board.processor.cores.core.commitStats0.committedInstType::SimdAesMix            0      0.00%     71.65% # Class of committed instruction. (Count)
board.processor.cores.core.commitStats0.committedInstType::SimdSha1Hash            0      0.00%     71.65% # Class of committed instruction. (Count)
board.processor.cores.core.commitStats0.committedInstType::SimdSha1Hash2            0      0.00%     71.65% # Class of committed instruction. (Count)
board.processor.cores.core.commitStats0.committedInstType::SimdSha256Hash            0      0.00%     71.65% # Class of committed instruction. (Count)
board.processor.cores.core.commitStats0.committedInstType::SimdSha256Hash2            0      0.00%     71.65% # Class of committed instruction. (Count)
board.processor.cores.core.commitStats0.committedInstType::SimdShaSigma2            0      0.00%     71.65% # Class of committed instruction. (Count)
board.processor.cores.core.commitStats0.committedInstType::SimdShaSigma3            0      0.00%     71.65% # Class of committed instruction. (Count)
board.processor.cores.core.commitStats0.committedInstType::SimdPredAlu            0      0.00%     71.65% # Class of committed instruction. (Count)
board.processor.cores.core.commitStats0.committedInstType::Matrix            0      0.00%     71.65% # Class of committed instruction. (Count)
board.processor.cores.core.commitStats0.committedInstType::MatrixMov            0      0.00%     71.65% # Class of committed instruction. (Count)
board.processor.cores.core.commitStats0.committedInstType::MatrixOP            0      0.00%     71.65% # Class of committed instruction. (Count)
board.processor.cores.core.commitStats0.committedInstType::MemRead     51241508     21.31%     92.96% # Class of committed instruction. (Count)
board.processor.cores.core.commitStats0.committedInstType::MemWrite     16862410      7.01%     99.97% # Class of committed instruction. (Count)
board.processor.cores.core.commitStats0.committedInstType::FloatMemRead         2516      0.00%     99.97% # Class of committed instruction. (Count)
board.processor.cores.core.commitStats0.committedInstType::FloatMemWrite        70440      0.03%    100.00% # Class of committed instruction. (Count)
board.processor.cores.core.commitStats0.committedInstType::IprAccess            0      0.00%    100.00% # Class of committed instruction. (Count)
board.processor.cores.core.commitStats0.committedInstType::InstPrefetch            0      0.00%    100.00% # Class of committed instruction. (Count)
board.processor.cores.core.commitStats0.committedInstType::SimdUnitStrideLoad            0      0.00%    100.00% # Class of committed instruction. (Count)
board.processor.cores.core.commitStats0.committedInstType::SimdUnitStrideStore            0      0.00%    100.00% # Class of committed instruction. (Count)
board.processor.cores.core.commitStats0.committedInstType::SimdUnitStrideMaskLoad            0      0.00%    100.00% # Class of committed instruction. (Count)
board.processor.cores.core.commitStats0.committedInstType::SimdUnitStrideMaskStore            0      0.00%    100.00% # Class of committed instruction. (Count)
board.processor.cores.core.commitStats0.committedInstType::SimdStridedLoad            0      0.00%    100.00% # Class of committed instruction. (Count)
board.processor.cores.core.commitStats0.committedInstType::SimdStridedStore            0      0.00%    100.00% # Class of committed instruction. (Count)
board.processor.cores.core.commitStats0.committedInstType::SimdIndexedLoad            0      0.00%    100.00% # Class of committed instruction. (Count)
board.processor.cores.core.commitStats0.committedInstType::SimdIndexedStore            0      0.00%    100.00% # Class of committed instruction. (Count)
board.processor.cores.core.commitStats0.committedInstType::SimdWholeRegisterLoad            0      0.00%    100.00% # Class of committed instruction. (Count)
board.processor.cores.core.commitStats0.committedInstType::SimdWholeRegisterStore            0      0.00%    100.00% # Class of committed instruction. (Count)
board.processor.cores.core.commitStats0.committedInstType::SimdUnitStrideFaultOnlyFirstLoad            0      0.00%    100.00% # Class of committed instruction. (Count)
board.processor.cores.core.commitStats0.committedInstType::SimdUnitStrideSegmentedLoad            0      0.00%    100.00% # Class of committed instruction. (Count)
board.processor.cores.core.commitStats0.committedInstType::SimdUnitStrideSegmentedStore            0      0.00%    100.00% # Class of committed instruction. (Count)
board.processor.cores.core.commitStats0.committedInstType::SimdExt            0      0.00%    100.00% # Class of committed instruction. (Count)
board.processor.cores.core.commitStats0.committedInstType::SimdFloatExt            0      0.00%    100.00% # Class of committed instruction. (Count)
board.processor.cores.core.commitStats0.committedInstType::SimdConfig            0      0.00%    100.00% # Class of committed instruction. (Count)
board.processor.cores.core.commitStats0.committedInstType::total    240462360                       # Class of committed instruction. (Count)
board.processor.cores.core.commitStats0.committedControl::IsControl     17446211                       # Class of control type instructions committed (Count)
board.processor.cores.core.commitStats0.committedControl::IsDirectControl     17438882                       # Class of control type instructions committed (Count)
board.processor.cores.core.commitStats0.committedControl::IsIndirectControl         7291                       # Class of control type instructions committed (Count)
board.processor.cores.core.commitStats0.committedControl::IsCondControl     17428209                       # Class of control type instructions committed (Count)
board.processor.cores.core.commitStats0.committedControl::IsUncondControl        17964                       # Class of control type instructions committed (Count)
board.processor.cores.core.commitStats0.committedControl::IsCall         5458                       # Class of control type instructions committed (Count)
board.processor.cores.core.commitStats0.committedControl::IsReturn         5453                       # Class of control type instructions committed (Count)
board.processor.cores.core.exec_context.thread_0.numMatAluAccesses            0                       # Number of matrix alu accesses (Count)
board.processor.cores.core.exec_context.thread_0.numCallsReturns        10911                       # Number of times a function call or return occured (Count)
board.processor.cores.core.exec_context.thread_0.numMatInsts            0                       # Number of matrix instructions (Count)
board.processor.cores.core.exec_context.thread_0.numIdleCycles     0.003003                       # Number of idle cycles (Cycle)
board.processor.cores.core.exec_context.thread_0.numBusyCycles 493277840.996997                       # Number of busy cycles (Cycle)
board.processor.cores.core.exec_context.thread_0.notIdleFraction     1.000000                       # Percentage of non-idle cycles (Ratio)
board.processor.cores.core.exec_context.thread_0.idleFraction     0.000000                       # Percentage of idle cycles (Ratio)
board.processor.cores.core.executeStats0.numInsts            0                       # Number of executed instructions (Count)
board.processor.cores.core.executeStats0.numNop            0                       # Number of nop insts executed (Count)
board.processor.cores.core.executeStats0.numBranches            0                       # Number of branches executed (Count)
board.processor.cores.core.executeStats0.numLoadInsts            0                       # Number of load instructions executed (Count)
board.processor.cores.core.executeStats0.numStoreInsts     68176874                       # Number of stores executed (Count)
board.processor.cores.core.executeStats0.instRate            0                       # Inst execution rate ((Count/Cycle))
board.processor.cores.core.executeStats0.numFpAluAccesses       281462                       # Number of float alu accesses (Count)
board.processor.cores.core.executeStats0.numFpRegReads       579894                       # Number of times the floating registers were read (Count)
board.processor.cores.core.executeStats0.numFpRegWrites       209783                       # Number of times the floating registers were written (Count)
board.processor.cores.core.executeStats0.numIntAluAccesses    239951367                       # Number of integer alu accesses (Count)
board.processor.cores.core.executeStats0.numIntRegReads    375156673                       # Number of times the integer registers were read (Count)
board.processor.cores.core.executeStats0.numIntRegWrites    188213188                       # Number of times the integer registers were written (Count)
board.processor.cores.core.executeStats0.numMemRefs     68176874                       # Number of memory refs (Count)
board.processor.cores.core.executeStats0.numMiscRegReads    103014533                       # Number of times the Misc registers were read (Count)
board.processor.cores.core.executeStats0.numVecAluAccesses            0                       # Number of vector alu accesses (Count)
board.processor.cores.core.executeStats0.numDiscardedOps            0                       # Number of ops (including micro ops) which were discarded before commit (Count)
board.processor.cores.core.fetchStats0.numInsts    137732455                       # Number of instructions fetched (thread level) (Count)
board.processor.cores.core.fetchStats0.numOps    240462360                       # Number of ops (including micro ops) fetched (thread level) (Count)
board.processor.cores.core.fetchStats0.fetchRate     0.279219                       # Number of inst fetches per cycle ((Count/Cycle))
board.processor.cores.core.fetchStats0.numBranches     17446211                       # Number of branches fetched (Count)
board.processor.cores.core.fetchStats0.branchRate     0.035368                       # Number of branch fetches per cycle (Ratio)
board.processor.cores.core.fetchStats0.numFetchSuspends            0                       # Number of times Execute suspended instruction fetching (Count)
board.processor.cores.core.interrupts.clk_domain.clock         5328                       # Clock period in ticks (Tick)
board.processor.cores.core.mmu.dtb.rdAccesses     51244027                       # TLB accesses on read requests (Count)
board.processor.cores.core.mmu.dtb.wrAccesses     16932851                       # TLB accesses on write requests (Count)
board.processor.cores.core.mmu.dtb.rdMisses         5798                       # TLB misses on read requests (Count)
board.processor.cores.core.mmu.dtb.wrMisses          619                       # TLB misses on write requests (Count)
board.processor.cores.core.mmu.dtb.walker.power_state.pwrStateResidencyTicks::UNDEFINED 164261521053                       # Cumulative time (in ticks) in various power states (Tick)
board.processor.cores.core.mmu.itb.rdAccesses            0                       # TLB accesses on read requests (Count)
board.processor.cores.core.mmu.itb.wrAccesses    171708818                       # TLB accesses on write requests (Count)
board.processor.cores.core.mmu.itb.rdMisses            0                       # TLB misses on read requests (Count)
board.processor.cores.core.mmu.itb.wrMisses          167                       # TLB misses on write requests (Count)
board.processor.cores.core.mmu.itb.walker.power_state.pwrStateResidencyTicks::UNDEFINED 164261521053                       # Cumulative time (in ticks) in various power states (Tick)
board.processor.cores.core.power_state.pwrStateResidencyTicks::ON 164261521053                       # Cumulative time (in ticks) in various power states (Tick)
board.processor.cores.core.thread_0.numInsts            0                       # Number of Instructions committed (Count)
board.processor.cores.core.thread_0.numOps            0                       # Number of Ops committed (Count)
board.processor.cores.core.thread_0.numMemRefs            0                       # Number of Memory References (Count)
board.processor.cores.core.workload.numSyscalls           38                       # Number of system calls (Count)
board.workload.inst.arm                             0                       # number of arm instructions executed (Count)
board.workload.inst.quiesce                         0                       # number of quiesce instructions executed (Count)

---------- End Simulation Statistics   ----------
