
---------- Begin Simulation Statistics ----------
simSeconds                                   0.107672                       # Number of seconds simulated (Second)
simTicks                                 107672277000                       # Number of ticks simulated (Tick)
finalTick                                107672277000                       # Number of ticks from beginning of simulation (restored from checkpoints and never reset) (Tick)
simFreq                                  1000000000000                       # The number of ticks per simulated second ((Tick/Second))
hostSeconds                                    217.40                       # Real time elapsed on the host (Second)
hostTickRate                                495283991                       # The number of ticks simulated per host second (ticks/s) ((Tick/Second))
hostMemory                                    2788148                       # Number of bytes of host memory used (Byte)
simInsts                                     34781295                       # Number of instructions simulated (Count)
simOps                                       65081249                       # Number of ops (including micro ops) simulated (Count)
hostInstRate                                   159991                       # Simulator instruction rate (inst/s) ((Count/Second))
hostOpRate                                     299368                       # Simulator op (including micro ops) rate (op/s) ((Count/Second))
system.clk_domain.clock                          1000                       # Clock period in ticks (Tick)
system.cpu0.numCycles                       215344553                       # Number of cpu cycles simulated (Cycle)
system.cpu0.cpi                              6.480897                       # CPI: cycles per instruction (core level) ((Cycle/Count))
system.cpu0.ipc                              0.154300                       # IPC: instructions per cycle (core level) ((Count/Cycle))
system.cpu0.numWorkItemsStarted                     0                       # Number of work items this cpu started (Count)
system.cpu0.numWorkItemsCompleted                   0                       # Number of work items this cpu completed (Count)
system.cpu0.clk_domain.clock                      500                       # Clock period in ticks (Tick)
system.cpu0.clk_domain.voltage_domain.voltage            1                       # Voltage in Volts (Volt)
system.cpu0.commitStats0.numInsts            33227582                       # Number of instructions committed (thread level) (Count)
system.cpu0.commitStats0.numOps              61978591                       # Number of ops (including micro ops) committed (thread level) (Count)
system.cpu0.commitStats0.numInstsNotNOP             0                       # Number of instructions committed excluding NOPs or prefetches (Count)
system.cpu0.commitStats0.numOpsNotNOP               0                       # Number of Ops (including micro ops) Simulated (Count)
system.cpu0.commitStats0.cpi                 6.480897                       # CPI: cycles per instruction (thread level) ((Cycle/Count))
system.cpu0.commitStats0.ipc                 0.154300                       # IPC: instructions per cycle (thread level) ((Count/Cycle))
system.cpu0.commitStats0.numMemRefs                 0                       # Number of memory references committed (Count)
system.cpu0.commitStats0.numFpInsts           3360699                       # Number of float instructions (Count)
system.cpu0.commitStats0.numIntInsts         59078936                       # Number of integer instructions (Count)
system.cpu0.commitStats0.numLoadInsts         8744716                       # Number of load instructions (Count)
system.cpu0.commitStats0.numStoreInsts        3733380                       # Number of store instructions (Count)
system.cpu0.commitStats0.numVecInsts                0                       # Number of vector instructions (Count)
system.cpu0.commitStats0.committedInstType::No_OpClass       690210      1.11%      1.11% # Class of committed instruction. (Count)
system.cpu0.commitStats0.committedInstType::IntAlu     45994596     74.21%     75.32% # Class of committed instruction. (Count)
system.cpu0.commitStats0.committedInstType::IntMult       622153      1.00%     76.33% # Class of committed instruction. (Count)
system.cpu0.commitStats0.committedInstType::IntDiv        86683      0.14%     76.47% # Class of committed instruction. (Count)
system.cpu0.commitStats0.committedInstType::FloatAdd       201054      0.32%     76.79% # Class of committed instruction. (Count)
system.cpu0.commitStats0.committedInstType::FloatCmp           31      0.00%     76.79% # Class of committed instruction. (Count)
system.cpu0.commitStats0.committedInstType::FloatCvt         6576      0.01%     76.80% # Class of committed instruction. (Count)
system.cpu0.commitStats0.committedInstType::FloatMult           15      0.00%     76.80% # Class of committed instruction. (Count)
system.cpu0.commitStats0.committedInstType::FloatMultAcc            0      0.00%     76.80% # Class of committed instruction. (Count)
system.cpu0.commitStats0.committedInstType::FloatDiv           15      0.00%     76.80% # Class of committed instruction. (Count)
system.cpu0.commitStats0.committedInstType::FloatMisc            0      0.00%     76.80% # Class of committed instruction. (Count)
system.cpu0.commitStats0.committedInstType::FloatSqrt            0      0.00%     76.80% # Class of committed instruction. (Count)
system.cpu0.commitStats0.committedInstType::SimdAdd        18748      0.03%     76.83% # Class of committed instruction. (Count)
system.cpu0.commitStats0.committedInstType::SimdAddAcc            0      0.00%     76.83% # Class of committed instruction. (Count)
system.cpu0.commitStats0.committedInstType::SimdAlu       624392      1.01%     77.84% # Class of committed instruction. (Count)
system.cpu0.commitStats0.committedInstType::SimdCmp         3210      0.01%     77.85% # Class of committed instruction. (Count)
system.cpu0.commitStats0.committedInstType::SimdCvt        76612      0.12%     77.97% # Class of committed instruction. (Count)
system.cpu0.commitStats0.committedInstType::SimdMisc       349516      0.56%     78.53% # Class of committed instruction. (Count)
system.cpu0.commitStats0.committedInstType::SimdMult            0      0.00%     78.53% # Class of committed instruction. (Count)
system.cpu0.commitStats0.committedInstType::SimdMultAcc            0      0.00%     78.53% # Class of committed instruction. (Count)
system.cpu0.commitStats0.committedInstType::SimdMatMultAcc            0      0.00%     78.53% # Class of committed instruction. (Count)
system.cpu0.commitStats0.committedInstType::SimdShift         8205      0.01%     78.55% # Class of committed instruction. (Count)
system.cpu0.commitStats0.committedInstType::SimdShiftAcc            0      0.00%     78.55% # Class of committed instruction. (Count)
system.cpu0.commitStats0.committedInstType::SimdDiv            0      0.00%     78.55% # Class of committed instruction. (Count)
system.cpu0.commitStats0.committedInstType::SimdSqrt            0      0.00%     78.55% # Class of committed instruction. (Count)
system.cpu0.commitStats0.committedInstType::SimdFloatAdd        90932      0.15%     78.69% # Class of committed instruction. (Count)
system.cpu0.commitStats0.committedInstType::SimdFloatAlu            0      0.00%     78.69% # Class of committed instruction. (Count)
system.cpu0.commitStats0.committedInstType::SimdFloatCmp            0      0.00%     78.69% # Class of committed instruction. (Count)
system.cpu0.commitStats0.committedInstType::SimdFloatCvt       545653      0.88%     79.57% # Class of committed instruction. (Count)
system.cpu0.commitStats0.committedInstType::SimdFloatDiv            5      0.00%     79.57% # Class of committed instruction. (Count)
system.cpu0.commitStats0.committedInstType::SimdFloatMisc            0      0.00%     79.57% # Class of committed instruction. (Count)
system.cpu0.commitStats0.committedInstType::SimdFloatMult       181889      0.29%     79.87% # Class of committed instruction. (Count)
system.cpu0.commitStats0.committedInstType::SimdFloatMultAcc            0      0.00%     79.87% # Class of committed instruction. (Count)
system.cpu0.commitStats0.committedInstType::SimdFloatMatMultAcc            0      0.00%     79.87% # Class of committed instruction. (Count)
system.cpu0.commitStats0.committedInstType::SimdFloatSqrt            0      0.00%     79.87% # Class of committed instruction. (Count)
system.cpu0.commitStats0.committedInstType::SimdReduceAdd            0      0.00%     79.87% # Class of committed instruction. (Count)
system.cpu0.commitStats0.committedInstType::SimdReduceAlu            0      0.00%     79.87% # Class of committed instruction. (Count)
system.cpu0.commitStats0.committedInstType::SimdReduceCmp            0      0.00%     79.87% # Class of committed instruction. (Count)
system.cpu0.commitStats0.committedInstType::SimdFloatReduceAdd            0      0.00%     79.87% # Class of committed instruction. (Count)
system.cpu0.commitStats0.committedInstType::SimdFloatReduceCmp            0      0.00%     79.87% # Class of committed instruction. (Count)
system.cpu0.commitStats0.committedInstType::SimdAes            0      0.00%     79.87% # Class of committed instruction. (Count)
system.cpu0.commitStats0.committedInstType::SimdAesMix            0      0.00%     79.87% # Class of committed instruction. (Count)
system.cpu0.commitStats0.committedInstType::SimdSha1Hash            0      0.00%     79.87% # Class of committed instruction. (Count)
system.cpu0.commitStats0.committedInstType::SimdSha1Hash2            0      0.00%     79.87% # Class of committed instruction. (Count)
system.cpu0.commitStats0.committedInstType::SimdSha256Hash            0      0.00%     79.87% # Class of committed instruction. (Count)
system.cpu0.commitStats0.committedInstType::SimdSha256Hash2            0      0.00%     79.87% # Class of committed instruction. (Count)
system.cpu0.commitStats0.committedInstType::SimdShaSigma2            0      0.00%     79.87% # Class of committed instruction. (Count)
system.cpu0.commitStats0.committedInstType::SimdShaSigma3            0      0.00%     79.87% # Class of committed instruction. (Count)
system.cpu0.commitStats0.committedInstType::SimdPredAlu            0      0.00%     79.87% # Class of committed instruction. (Count)
system.cpu0.commitStats0.committedInstType::Matrix            0      0.00%     79.87% # Class of committed instruction. (Count)
system.cpu0.commitStats0.committedInstType::MatrixMov            0      0.00%     79.87% # Class of committed instruction. (Count)
system.cpu0.commitStats0.committedInstType::MatrixOP            0      0.00%     79.87% # Class of committed instruction. (Count)
system.cpu0.commitStats0.committedInstType::MemRead      7923280     12.78%     92.65% # Class of committed instruction. (Count)
system.cpu0.commitStats0.committedInstType::MemWrite      3493621      5.64%     98.29% # Class of committed instruction. (Count)
system.cpu0.commitStats0.committedInstType::FloatMemRead       821436      1.33%     99.61% # Class of committed instruction. (Count)
system.cpu0.commitStats0.committedInstType::FloatMemWrite       239759      0.39%    100.00% # Class of committed instruction. (Count)
system.cpu0.commitStats0.committedInstType::IprAccess            0      0.00%    100.00% # Class of committed instruction. (Count)
system.cpu0.commitStats0.committedInstType::InstPrefetch            0      0.00%    100.00% # Class of committed instruction. (Count)
system.cpu0.commitStats0.committedInstType::SimdUnitStrideLoad            0      0.00%    100.00% # Class of committed instruction. (Count)
system.cpu0.commitStats0.committedInstType::SimdUnitStrideStore            0      0.00%    100.00% # Class of committed instruction. (Count)
system.cpu0.commitStats0.committedInstType::SimdUnitStrideMaskLoad            0      0.00%    100.00% # Class of committed instruction. (Count)
system.cpu0.commitStats0.committedInstType::SimdUnitStrideMaskStore            0      0.00%    100.00% # Class of committed instruction. (Count)
system.cpu0.commitStats0.committedInstType::SimdStridedLoad            0      0.00%    100.00% # Class of committed instruction. (Count)
system.cpu0.commitStats0.committedInstType::SimdStridedStore            0      0.00%    100.00% # Class of committed instruction. (Count)
system.cpu0.commitStats0.committedInstType::SimdIndexedLoad            0      0.00%    100.00% # Class of committed instruction. (Count)
system.cpu0.commitStats0.committedInstType::SimdIndexedStore            0      0.00%    100.00% # Class of committed instruction. (Count)
system.cpu0.commitStats0.committedInstType::SimdWholeRegisterLoad            0      0.00%    100.00% # Class of committed instruction. (Count)
system.cpu0.commitStats0.committedInstType::SimdWholeRegisterStore            0      0.00%    100.00% # Class of committed instruction. (Count)
system.cpu0.commitStats0.committedInstType::SimdUnitStrideFaultOnlyFirstLoad            0      0.00%    100.00% # Class of committed instruction. (Count)
system.cpu0.commitStats0.committedInstType::SimdUnitStrideSegmentedLoad            0      0.00%    100.00% # Class of committed instruction. (Count)
system.cpu0.commitStats0.committedInstType::SimdUnitStrideSegmentedStore            0      0.00%    100.00% # Class of committed instruction. (Count)
system.cpu0.commitStats0.committedInstType::SimdExt            0      0.00%    100.00% # Class of committed instruction. (Count)
system.cpu0.commitStats0.committedInstType::SimdFloatExt            0      0.00%    100.00% # Class of committed instruction. (Count)
system.cpu0.commitStats0.committedInstType::SimdConfig            0      0.00%    100.00% # Class of committed instruction. (Count)
system.cpu0.commitStats0.committedInstType::total     61978591                       # Class of committed instruction. (Count)
system.cpu0.commitStats0.committedControl::IsControl      6325139                       # Class of control type instructions committed (Count)
system.cpu0.commitStats0.committedControl::IsDirectControl      5580723                       # Class of control type instructions committed (Count)
system.cpu0.commitStats0.committedControl::IsIndirectControl       743177                       # Class of control type instructions committed (Count)
system.cpu0.commitStats0.committedControl::IsCondControl      4667380                       # Class of control type instructions committed (Count)
system.cpu0.commitStats0.committedControl::IsUncondControl      1656520                       # Class of control type instructions committed (Count)
system.cpu0.commitStats0.committedControl::IsCall       435340                       # Class of control type instructions committed (Count)
system.cpu0.commitStats0.committedControl::IsReturn       435320                       # Class of control type instructions committed (Count)
system.cpu0.exec_context.thread_0.numMatAluAccesses            0                       # Number of matrix alu accesses (Count)
system.cpu0.exec_context.thread_0.numCallsReturns       870660                       # Number of times a function call or return occured (Count)
system.cpu0.exec_context.thread_0.numMatInsts            0                       # Number of matrix instructions (Count)
system.cpu0.exec_context.thread_0.numIdleCycles 8276899.961488                       # Number of idle cycles (Cycle)
system.cpu0.exec_context.thread_0.numBusyCycles 207067653.038512                       # Number of busy cycles (Cycle)
system.cpu0.exec_context.thread_0.notIdleFraction     0.961564                       # Percentage of non-idle cycles (Ratio)
system.cpu0.exec_context.thread_0.idleFraction     0.038436                       # Percentage of idle cycles (Ratio)
system.cpu0.executeStats0.numInsts                  0                       # Number of executed instructions (Count)
system.cpu0.executeStats0.numNop                    0                       # Number of nop insts executed (Count)
system.cpu0.executeStats0.numBranches               0                       # Number of branches executed (Count)
system.cpu0.executeStats0.numLoadInsts              0                       # Number of load instructions executed (Count)
system.cpu0.executeStats0.numStoreInsts      12478096                       # Number of stores executed (Count)
system.cpu0.executeStats0.instRate                  0                       # Inst execution rate ((Count/Cycle))
system.cpu0.executeStats0.numFpAluAccesses      3360699                       # Number of float alu accesses (Count)
system.cpu0.executeStats0.numFpRegReads       4465119                       # Number of times the floating registers were read (Count)
system.cpu0.executeStats0.numFpRegWrites      2694772                       # Number of times the floating registers were written (Count)
system.cpu0.executeStats0.numIntAluAccesses     59078936                       # Number of integer alu accesses (Count)
system.cpu0.executeStats0.numIntRegReads     71342017                       # Number of times the integer registers were read (Count)
system.cpu0.executeStats0.numIntRegWrites     44082709                       # Number of times the integer registers were written (Count)
system.cpu0.executeStats0.numMemRefs         12478096                       # Number of memory refs (Count)
system.cpu0.executeStats0.numMiscRegReads     25261880                       # Number of times the Misc registers were read (Count)
system.cpu0.executeStats0.numMiscRegWrites         4006                       # Number of times the Misc registers were written (Count)
system.cpu0.executeStats0.numVecAluAccesses            0                       # Number of vector alu accesses (Count)
system.cpu0.executeStats0.numDiscardedOps            0                       # Number of ops (including micro ops) which were discarded before commit (Count)
system.cpu0.fetchStats0.numInsts             33227582                       # Number of instructions fetched (thread level) (Count)
system.cpu0.fetchStats0.numOps               61978592                       # Number of ops (including micro ops) fetched (thread level) (Count)
system.cpu0.fetchStats0.fetchRate            0.154300                       # Number of inst fetches per cycle ((Count/Cycle))
system.cpu0.fetchStats0.numBranches           6325139                       # Number of branches fetched (Count)
system.cpu0.fetchStats0.branchRate           0.029372                       # Number of branch fetches per cycle (Ratio)
system.cpu0.fetchStats0.numFetchSuspends            0                       # Number of times Execute suspended instruction fetching (Count)
system.cpu0.interrupts.clk_domain.clock          8000                       # Clock period in ticks (Tick)
system.cpu0.mmu.dtb.rdAccesses                8751421                       # TLB accesses on read requests (Count)
system.cpu0.mmu.dtb.wrAccesses                3735703                       # TLB accesses on write requests (Count)
system.cpu0.mmu.dtb.rdMisses                    11709                       # TLB misses on read requests (Count)
system.cpu0.mmu.dtb.wrMisses                     3626                       # TLB misses on write requests (Count)
system.cpu0.mmu.dtb.walker.power_state.pwrStateResidencyTicks::UNDEFINED 107672277000                       # Cumulative time (in ticks) in various power states (Tick)
system.cpu0.mmu.itb.rdAccesses                      0                       # TLB accesses on read requests (Count)
system.cpu0.mmu.itb.wrAccesses               45959602                       # TLB accesses on write requests (Count)
system.cpu0.mmu.itb.rdMisses                        0                       # TLB misses on read requests (Count)
system.cpu0.mmu.itb.wrMisses                     3656                       # TLB misses on write requests (Count)
system.cpu0.mmu.itb.walker.power_state.pwrStateResidencyTicks::UNDEFINED 107672277000                       # Cumulative time (in ticks) in various power states (Tick)
system.cpu0.power_state.numTransitions              6                       # Number of power state transitions (Count)
system.cpu0.power_state.ticksClkGated::samples            3                       # Distribution of time spent in the clock gated state (Tick)
system.cpu0.power_state.ticksClkGated::mean 1379483333.333333                       # Distribution of time spent in the clock gated state (Tick)
system.cpu0.power_state.ticksClkGated::stdev 2292719285.692065                       # Distribution of time spent in the clock gated state (Tick)
system.cpu0.power_state.ticksClkGated::1000-5e+10            3    100.00%    100.00% # Distribution of time spent in the clock gated state (Tick)
system.cpu0.power_state.ticksClkGated::min_value     37076000                       # Distribution of time spent in the clock gated state (Tick)
system.cpu0.power_state.ticksClkGated::max_value   4026799000                       # Distribution of time spent in the clock gated state (Tick)
system.cpu0.power_state.ticksClkGated::total            3                       # Distribution of time spent in the clock gated state (Tick)
system.cpu0.power_state.pwrStateResidencyTicks::ON 103533827000                       # Cumulative time (in ticks) in various power states (Tick)
system.cpu0.power_state.pwrStateResidencyTicks::CLK_GATED   4138450000                       # Cumulative time (in ticks) in various power states (Tick)
system.cpu0.thread_0.numInsts                       0                       # Number of Instructions committed (Count)
system.cpu0.thread_0.numOps                         0                       # Number of Ops committed (Count)
system.cpu0.thread_0.numMemRefs                     0                       # Number of Memory References (Count)
system.cpu0.workload.numSyscalls               181864                       # Number of system calls (Count)
system.cpu0.workload.drivers0.device.dispatcher.numKernelLaunched            1                       # number of kernel launched (Unspecified)
system.cpu0.workload.drivers0.device.dispatcher.cyclesWaitingForDispatch         4017                       # number of cycles with outstanding wavefronts that are waiting to be dispatched (Unspecified)
system.cpu0.workload.drivers0.device.hsapp.power_state.pwrStateResidencyTicks::UNDEFINED 107672277000                       # Cumulative time (in ticks) in various power states (Tick)
system.cpu0.workload.drivers0.device.hsapp.walker.power_state.pwrStateResidencyTicks::UNDEFINED 107672277000                       # Cumulative time (in ticks) in various power states (Tick)
system.cpu0.workload.drivers0.device.power_state.pwrStateResidencyTicks::UNDEFINED 107672277000                       # Cumulative time (in ticks) in various power states (Tick)
system.cpu0.workload.drivers0.device.walker.power_state.pwrStateResidencyTicks::UNDEFINED 107672277000                       # Cumulative time (in ticks) in various power states (Tick)
system.cpu1.numCycles                       202164747                       # Number of cpu cycles simulated (Cycle)
system.cpu1.cpi                            589.317407                       # CPI: cycles per instruction (core level) ((Cycle/Count))
system.cpu1.ipc                              0.001697                       # IPC: instructions per cycle (core level) ((Count/Cycle))
system.cpu1.numWorkItemsStarted                     0                       # Number of work items this cpu started (Count)
system.cpu1.numWorkItemsCompleted                   0                       # Number of work items this cpu completed (Count)
system.cpu1.clk_domain.clock                      500                       # Clock period in ticks (Tick)
system.cpu1.clk_domain.voltage_domain.voltage            1                       # Voltage in Volts (Volt)
system.cpu1.commitStats0.numInsts              343049                       # Number of instructions committed (thread level) (Count)
system.cpu1.commitStats0.numOps                646997                       # Number of ops (including micro ops) committed (thread level) (Count)
system.cpu1.commitStats0.numInstsNotNOP             0                       # Number of instructions committed excluding NOPs or prefetches (Count)
system.cpu1.commitStats0.numOpsNotNOP               0                       # Number of Ops (including micro ops) Simulated (Count)
system.cpu1.commitStats0.cpi               589.317407                       # CPI: cycles per instruction (thread level) ((Cycle/Count))
system.cpu1.commitStats0.ipc                 0.001697                       # IPC: instructions per cycle (thread level) ((Count/Cycle))
system.cpu1.commitStats0.numMemRefs                 0                       # Number of memory references committed (Count)
system.cpu1.commitStats0.numFpInsts             20444                       # Number of float instructions (Count)
system.cpu1.commitStats0.numIntInsts           624707                       # Number of integer instructions (Count)
system.cpu1.commitStats0.numLoadInsts          149312                       # Number of load instructions (Count)
system.cpu1.commitStats0.numStoreInsts          12447                       # Number of store instructions (Count)
system.cpu1.commitStats0.numVecInsts                0                       # Number of vector instructions (Count)
system.cpu1.commitStats0.committedInstType::No_OpClass         9287      1.44%      1.44% # Class of committed instruction. (Count)
system.cpu1.commitStats0.committedInstType::IntAlu       461683     71.36%     72.79% # Class of committed instruction. (Count)
system.cpu1.commitStats0.committedInstType::IntMult            3      0.00%     72.79% # Class of committed instruction. (Count)
system.cpu1.commitStats0.committedInstType::IntDiv           75      0.01%     72.81% # Class of committed instruction. (Count)
system.cpu1.commitStats0.committedInstType::FloatAdd         2890      0.45%     73.25% # Class of committed instruction. (Count)
system.cpu1.commitStats0.committedInstType::FloatCmp            0      0.00%     73.25% # Class of committed instruction. (Count)
system.cpu1.commitStats0.committedInstType::FloatCvt           48      0.01%     73.26% # Class of committed instruction. (Count)
system.cpu1.commitStats0.committedInstType::FloatMult            0      0.00%     73.26% # Class of committed instruction. (Count)
system.cpu1.commitStats0.committedInstType::FloatMultAcc            0      0.00%     73.26% # Class of committed instruction. (Count)
system.cpu1.commitStats0.committedInstType::FloatDiv            0      0.00%     73.26% # Class of committed instruction. (Count)
system.cpu1.commitStats0.committedInstType::FloatMisc            0      0.00%     73.26% # Class of committed instruction. (Count)
system.cpu1.commitStats0.committedInstType::FloatSqrt            0      0.00%     73.26% # Class of committed instruction. (Count)
system.cpu1.commitStats0.committedInstType::SimdAdd           20      0.00%     73.26% # Class of committed instruction. (Count)
system.cpu1.commitStats0.committedInstType::SimdAddAcc            0      0.00%     73.26% # Class of committed instruction. (Count)
system.cpu1.commitStats0.committedInstType::SimdAlu         2786      0.43%     73.69% # Class of committed instruction. (Count)
system.cpu1.commitStats0.committedInstType::SimdCmp            0      0.00%     73.69% # Class of committed instruction. (Count)
system.cpu1.commitStats0.committedInstType::SimdCvt           40      0.01%     73.70% # Class of committed instruction. (Count)
system.cpu1.commitStats0.committedInstType::SimdMisc         1558      0.24%     73.94% # Class of committed instruction. (Count)
system.cpu1.commitStats0.committedInstType::SimdMult            0      0.00%     73.94% # Class of committed instruction. (Count)
system.cpu1.commitStats0.committedInstType::SimdMultAcc            0      0.00%     73.94% # Class of committed instruction. (Count)
system.cpu1.commitStats0.committedInstType::SimdMatMultAcc            0      0.00%     73.94% # Class of committed instruction. (Count)
system.cpu1.commitStats0.committedInstType::SimdShift           21      0.00%     73.94% # Class of committed instruction. (Count)
system.cpu1.commitStats0.committedInstType::SimdShiftAcc            0      0.00%     73.94% # Class of committed instruction. (Count)
system.cpu1.commitStats0.committedInstType::SimdDiv            0      0.00%     73.94% # Class of committed instruction. (Count)
system.cpu1.commitStats0.committedInstType::SimdSqrt            0      0.00%     73.94% # Class of committed instruction. (Count)
system.cpu1.commitStats0.committedInstType::SimdFloatAdd         1365      0.21%     74.15% # Class of committed instruction. (Count)
system.cpu1.commitStats0.committedInstType::SimdFloatAlu            0      0.00%     74.15% # Class of committed instruction. (Count)
system.cpu1.commitStats0.committedInstType::SimdFloatCmp            0      0.00%     74.15% # Class of committed instruction. (Count)
system.cpu1.commitStats0.committedInstType::SimdFloatCvt         4089      0.63%     74.79% # Class of committed instruction. (Count)
system.cpu1.commitStats0.committedInstType::SimdFloatDiv            7      0.00%     74.79% # Class of committed instruction. (Count)
system.cpu1.commitStats0.committedInstType::SimdFloatMisc            0      0.00%     74.79% # Class of committed instruction. (Count)
system.cpu1.commitStats0.committedInstType::SimdFloatMult         1366      0.21%     75.00% # Class of committed instruction. (Count)
system.cpu1.commitStats0.committedInstType::SimdFloatMultAcc            0      0.00%     75.00% # Class of committed instruction. (Count)
system.cpu1.commitStats0.committedInstType::SimdFloatMatMultAcc            0      0.00%     75.00% # Class of committed instruction. (Count)
system.cpu1.commitStats0.committedInstType::SimdFloatSqrt            0      0.00%     75.00% # Class of committed instruction. (Count)
system.cpu1.commitStats0.committedInstType::SimdReduceAdd            0      0.00%     75.00% # Class of committed instruction. (Count)
system.cpu1.commitStats0.committedInstType::SimdReduceAlu            0      0.00%     75.00% # Class of committed instruction. (Count)
system.cpu1.commitStats0.committedInstType::SimdReduceCmp            0      0.00%     75.00% # Class of committed instruction. (Count)
system.cpu1.commitStats0.committedInstType::SimdFloatReduceAdd            0      0.00%     75.00% # Class of committed instruction. (Count)
system.cpu1.commitStats0.committedInstType::SimdFloatReduceCmp            0      0.00%     75.00% # Class of committed instruction. (Count)
system.cpu1.commitStats0.committedInstType::SimdAes            0      0.00%     75.00% # Class of committed instruction. (Count)
system.cpu1.commitStats0.committedInstType::SimdAesMix            0      0.00%     75.00% # Class of committed instruction. (Count)
system.cpu1.commitStats0.committedInstType::SimdSha1Hash            0      0.00%     75.00% # Class of committed instruction. (Count)
system.cpu1.commitStats0.committedInstType::SimdSha1Hash2            0      0.00%     75.00% # Class of committed instruction. (Count)
system.cpu1.commitStats0.committedInstType::SimdSha256Hash            0      0.00%     75.00% # Class of committed instruction. (Count)
system.cpu1.commitStats0.committedInstType::SimdSha256Hash2            0      0.00%     75.00% # Class of committed instruction. (Count)
system.cpu1.commitStats0.committedInstType::SimdShaSigma2            0      0.00%     75.00% # Class of committed instruction. (Count)
system.cpu1.commitStats0.committedInstType::SimdShaSigma3            0      0.00%     75.00% # Class of committed instruction. (Count)
system.cpu1.commitStats0.committedInstType::SimdPredAlu            0      0.00%     75.00% # Class of committed instruction. (Count)
system.cpu1.commitStats0.committedInstType::Matrix            0      0.00%     75.00% # Class of committed instruction. (Count)
system.cpu1.commitStats0.committedInstType::MatrixMov            0      0.00%     75.00% # Class of committed instruction. (Count)
system.cpu1.commitStats0.committedInstType::MatrixOP            0      0.00%     75.00% # Class of committed instruction. (Count)
system.cpu1.commitStats0.committedInstType::MemRead       143701     22.21%     97.21% # Class of committed instruction. (Count)
system.cpu1.commitStats0.committedInstType::MemWrite        11950      1.85%     99.06% # Class of committed instruction. (Count)
system.cpu1.commitStats0.committedInstType::FloatMemRead         5611      0.87%     99.92% # Class of committed instruction. (Count)
system.cpu1.commitStats0.committedInstType::FloatMemWrite          497      0.08%    100.00% # Class of committed instruction. (Count)
system.cpu1.commitStats0.committedInstType::IprAccess            0      0.00%    100.00% # Class of committed instruction. (Count)
system.cpu1.commitStats0.committedInstType::InstPrefetch            0      0.00%    100.00% # Class of committed instruction. (Count)
system.cpu1.commitStats0.committedInstType::SimdUnitStrideLoad            0      0.00%    100.00% # Class of committed instruction. (Count)
system.cpu1.commitStats0.committedInstType::SimdUnitStrideStore            0      0.00%    100.00% # Class of committed instruction. (Count)
system.cpu1.commitStats0.committedInstType::SimdUnitStrideMaskLoad            0      0.00%    100.00% # Class of committed instruction. (Count)
system.cpu1.commitStats0.committedInstType::SimdUnitStrideMaskStore            0      0.00%    100.00% # Class of committed instruction. (Count)
system.cpu1.commitStats0.committedInstType::SimdStridedLoad            0      0.00%    100.00% # Class of committed instruction. (Count)
system.cpu1.commitStats0.committedInstType::SimdStridedStore            0      0.00%    100.00% # Class of committed instruction. (Count)
system.cpu1.commitStats0.committedInstType::SimdIndexedLoad            0      0.00%    100.00% # Class of committed instruction. (Count)
system.cpu1.commitStats0.committedInstType::SimdIndexedStore            0      0.00%    100.00% # Class of committed instruction. (Count)
system.cpu1.commitStats0.committedInstType::SimdWholeRegisterLoad            0      0.00%    100.00% # Class of committed instruction. (Count)
system.cpu1.commitStats0.committedInstType::SimdWholeRegisterStore            0      0.00%    100.00% # Class of committed instruction. (Count)
system.cpu1.commitStats0.committedInstType::SimdUnitStrideFaultOnlyFirstLoad            0      0.00%    100.00% # Class of committed instruction. (Count)
system.cpu1.commitStats0.committedInstType::SimdUnitStrideSegmentedLoad            0      0.00%    100.00% # Class of committed instruction. (Count)
system.cpu1.commitStats0.committedInstType::SimdUnitStrideSegmentedStore            0      0.00%    100.00% # Class of committed instruction. (Count)
system.cpu1.commitStats0.committedInstType::SimdExt            0      0.00%    100.00% # Class of committed instruction. (Count)
system.cpu1.commitStats0.committedInstType::SimdFloatExt            0      0.00%    100.00% # Class of committed instruction. (Count)
system.cpu1.commitStats0.committedInstType::SimdConfig            0      0.00%    100.00% # Class of committed instruction. (Count)
system.cpu1.commitStats0.committedInstType::total       646997                       # Class of committed instruction. (Count)
system.cpu1.commitStats0.committedControl::IsControl       108909                       # Class of control type instructions committed (Count)
system.cpu1.commitStats0.committedControl::IsDirectControl        90649                       # Class of control type instructions committed (Count)
system.cpu1.commitStats0.committedControl::IsIndirectControl        18257                       # Class of control type instructions committed (Count)
system.cpu1.commitStats0.committedControl::IsCondControl        90340                       # Class of control type instructions committed (Count)
system.cpu1.commitStats0.committedControl::IsUncondControl        18566                       # Class of control type instructions committed (Count)
system.cpu1.commitStats0.committedControl::IsCall         9161                       # Class of control type instructions committed (Count)
system.cpu1.commitStats0.committedControl::IsReturn         9153                       # Class of control type instructions committed (Count)
system.cpu1.exec_context.thread_0.numMatAluAccesses            0                       # Number of matrix alu accesses (Count)
system.cpu1.exec_context.thread_0.numCallsReturns        18314                       # Number of times a function call or return occured (Count)
system.cpu1.exec_context.thread_0.numMatInsts            0                       # Number of matrix instructions (Count)
system.cpu1.exec_context.thread_0.numIdleCycles 200912750.882364                       # Number of idle cycles (Cycle)
system.cpu1.exec_context.thread_0.numBusyCycles 1251996.117636                       # Number of busy cycles (Cycle)
system.cpu1.exec_context.thread_0.notIdleFraction     0.006193                       # Percentage of non-idle cycles (Ratio)
system.cpu1.exec_context.thread_0.idleFraction     0.993807                       # Percentage of idle cycles (Ratio)
system.cpu1.executeStats0.numInsts                  0                       # Number of executed instructions (Count)
system.cpu1.executeStats0.numNop                    0                       # Number of nop insts executed (Count)
system.cpu1.executeStats0.numBranches               0                       # Number of branches executed (Count)
system.cpu1.executeStats0.numLoadInsts              0                       # Number of load instructions executed (Count)
system.cpu1.executeStats0.numStoreInsts        161759                       # Number of stores executed (Count)
system.cpu1.executeStats0.instRate                  0                       # Inst execution rate ((Count/Cycle))
system.cpu1.executeStats0.numFpAluAccesses        20444                       # Number of float alu accesses (Count)
system.cpu1.executeStats0.numFpRegReads         24605                       # Number of times the floating registers were read (Count)
system.cpu1.executeStats0.numFpRegWrites        17160                       # Number of times the floating registers were written (Count)
system.cpu1.executeStats0.numIntAluAccesses       624707                       # Number of integer alu accesses (Count)
system.cpu1.executeStats0.numIntRegReads       648156                       # Number of times the integer registers were read (Count)
system.cpu1.executeStats0.numIntRegWrites       410281                       # Number of times the integer registers were written (Count)
system.cpu1.executeStats0.numMemRefs           161759                       # Number of memory refs (Count)
system.cpu1.executeStats0.numMiscRegReads       374576                       # Number of times the Misc registers were read (Count)
system.cpu1.executeStats0.numMiscRegWrites           27                       # Number of times the Misc registers were written (Count)
system.cpu1.executeStats0.numVecAluAccesses            0                       # Number of vector alu accesses (Count)
system.cpu1.executeStats0.numDiscardedOps            0                       # Number of ops (including micro ops) which were discarded before commit (Count)
system.cpu1.fetchStats0.numInsts               343049                       # Number of instructions fetched (thread level) (Count)
system.cpu1.fetchStats0.numOps                 646997                       # Number of ops (including micro ops) fetched (thread level) (Count)
system.cpu1.fetchStats0.fetchRate            0.001697                       # Number of inst fetches per cycle ((Count/Cycle))
system.cpu1.fetchStats0.numBranches            108909                       # Number of branches fetched (Count)
system.cpu1.fetchStats0.branchRate           0.000539                       # Number of branch fetches per cycle (Ratio)
system.cpu1.fetchStats0.numFetchSuspends            0                       # Number of times Execute suspended instruction fetching (Count)
system.cpu1.interrupts.clk_domain.clock          8000                       # Clock period in ticks (Tick)
system.cpu1.mmu.dtb.rdAccesses                 149312                       # TLB accesses on read requests (Count)
system.cpu1.mmu.dtb.wrAccesses                  12447                       # TLB accesses on write requests (Count)
system.cpu1.mmu.dtb.rdMisses                      131                       # TLB misses on read requests (Count)
system.cpu1.mmu.dtb.wrMisses                        2                       # TLB misses on write requests (Count)
system.cpu1.mmu.dtb.walker.power_state.pwrStateResidencyTicks::UNDEFINED 107672277000                       # Cumulative time (in ticks) in various power states (Tick)
system.cpu1.mmu.itb.rdAccesses                      0                       # TLB accesses on read requests (Count)
system.cpu1.mmu.itb.wrAccesses                 453821                       # TLB accesses on write requests (Count)
system.cpu1.mmu.itb.rdMisses                        0                       # TLB misses on read requests (Count)
system.cpu1.mmu.itb.wrMisses                       97                       # TLB misses on write requests (Count)
system.cpu1.mmu.itb.walker.power_state.pwrStateResidencyTicks::UNDEFINED 107672277000                       # Cumulative time (in ticks) in various power states (Tick)
system.cpu1.power_state.numTransitions              3                       # Number of power state transitions (Count)
system.cpu1.power_state.ticksClkGated::samples            2                       # Distribution of time spent in the clock gated state (Tick)
system.cpu1.power_state.ticksClkGated::mean   4213695000                       # Distribution of time spent in the clock gated state (Tick)
system.cpu1.power_state.ticksClkGated::stdev 3360466287.726230                       # Distribution of time spent in the clock gated state (Tick)
system.cpu1.power_state.ticksClkGated::1000-5e+10            2    100.00%    100.00% # Distribution of time spent in the clock gated state (Tick)
system.cpu1.power_state.ticksClkGated::min_value   1837486500                       # Distribution of time spent in the clock gated state (Tick)
system.cpu1.power_state.ticksClkGated::max_value   6589903500                       # Distribution of time spent in the clock gated state (Tick)
system.cpu1.power_state.ticksClkGated::total            2                       # Distribution of time spent in the clock gated state (Tick)
system.cpu1.power_state.pwrStateResidencyTicks::ON  99244887000                       # Cumulative time (in ticks) in various power states (Tick)
system.cpu1.power_state.pwrStateResidencyTicks::CLK_GATED   8427390000                       # Cumulative time (in ticks) in various power states (Tick)
system.cpu1.thread_0.numInsts                       0                       # Number of Instructions committed (Count)
system.cpu1.thread_0.numOps                         0                       # Number of Ops committed (Count)
system.cpu1.thread_0.numMemRefs                     0                       # Number of Memory References (Count)
system.cpu2.numCycles                       215344554                       # Number of cpu cycles simulated (Cycle)
system.cpu2.cpi                            154.133623                       # CPI: cycles per instruction (core level) ((Cycle/Count))
system.cpu2.ipc                              0.006488                       # IPC: instructions per cycle (core level) ((Count/Cycle))
system.cpu2.numWorkItemsStarted                     0                       # Number of work items this cpu started (Count)
system.cpu2.numWorkItemsCompleted                   0                       # Number of work items this cpu completed (Count)
system.cpu2.clk_domain.clock                      500                       # Clock period in ticks (Tick)
system.cpu2.clk_domain.voltage_domain.voltage            1                       # Voltage in Volts (Volt)
system.cpu2.commitStats0.numInsts             1397129                       # Number of instructions committed (thread level) (Count)
system.cpu2.commitStats0.numOps               2642945                       # Number of ops (including micro ops) committed (thread level) (Count)
system.cpu2.commitStats0.numInstsNotNOP             0                       # Number of instructions committed excluding NOPs or prefetches (Count)
system.cpu2.commitStats0.numOpsNotNOP               0                       # Number of Ops (including micro ops) Simulated (Count)
system.cpu2.commitStats0.cpi               154.133623                       # CPI: cycles per instruction (thread level) ((Cycle/Count))
system.cpu2.commitStats0.ipc                 0.006488                       # IPC: instructions per cycle (thread level) ((Count/Cycle))
system.cpu2.commitStats0.numMemRefs                 0                       # Number of memory references committed (Count)
system.cpu2.commitStats0.numFpInsts            166910                       # Number of float instructions (Count)
system.cpu2.commitStats0.numIntInsts          2520569                       # Number of integer instructions (Count)
system.cpu2.commitStats0.numLoadInsts          361310                       # Number of load instructions (Count)
system.cpu2.commitStats0.numStoreInsts         266935                       # Number of store instructions (Count)
system.cpu2.commitStats0.numVecInsts                0                       # Number of vector instructions (Count)
system.cpu2.commitStats0.committedInstType::No_OpClass        34917      1.32%      1.32% # Class of committed instruction. (Count)
system.cpu2.commitStats0.committedInstType::IntAlu      1923332     72.77%     74.09% # Class of committed instruction. (Count)
system.cpu2.commitStats0.committedInstType::IntMult         1062      0.04%     74.13% # Class of committed instruction. (Count)
system.cpu2.commitStats0.committedInstType::IntDiv          714      0.03%     74.16% # Class of committed instruction. (Count)
system.cpu2.commitStats0.committedInstType::FloatAdd         8672      0.33%     74.49% # Class of committed instruction. (Count)
system.cpu2.commitStats0.committedInstType::FloatCmp            2      0.00%     74.49% # Class of committed instruction. (Count)
system.cpu2.commitStats0.committedInstType::FloatCvt          385      0.01%     74.50% # Class of committed instruction. (Count)
system.cpu2.commitStats0.committedInstType::FloatMult            1      0.00%     74.50% # Class of committed instruction. (Count)
system.cpu2.commitStats0.committedInstType::FloatMultAcc            0      0.00%     74.50% # Class of committed instruction. (Count)
system.cpu2.commitStats0.committedInstType::FloatDiv            1      0.00%     74.50% # Class of committed instruction. (Count)
system.cpu2.commitStats0.committedInstType::FloatMisc            0      0.00%     74.50% # Class of committed instruction. (Count)
system.cpu2.commitStats0.committedInstType::FloatSqrt            0      0.00%     74.50% # Class of committed instruction. (Count)
system.cpu2.commitStats0.committedInstType::SimdAdd          326      0.01%     74.52% # Class of committed instruction. (Count)
system.cpu2.commitStats0.committedInstType::SimdAddAcc            0      0.00%     74.52% # Class of committed instruction. (Count)
system.cpu2.commitStats0.committedInstType::SimdAlu        16242      0.61%     75.13% # Class of committed instruction. (Count)
system.cpu2.commitStats0.committedInstType::SimdCmp           12      0.00%     75.13% # Class of committed instruction. (Count)
system.cpu2.commitStats0.committedInstType::SimdCvt          370      0.01%     75.14% # Class of committed instruction. (Count)
system.cpu2.commitStats0.committedInstType::SimdMisc         5481      0.21%     75.35% # Class of committed instruction. (Count)
system.cpu2.commitStats0.committedInstType::SimdMult            0      0.00%     75.35% # Class of committed instruction. (Count)
system.cpu2.commitStats0.committedInstType::SimdMultAcc            0      0.00%     75.35% # Class of committed instruction. (Count)
system.cpu2.commitStats0.committedInstType::SimdMatMultAcc            0      0.00%     75.35% # Class of committed instruction. (Count)
system.cpu2.commitStats0.committedInstType::SimdShift          160      0.01%     75.36% # Class of committed instruction. (Count)
system.cpu2.commitStats0.committedInstType::SimdShiftAcc            0      0.00%     75.36% # Class of committed instruction. (Count)
system.cpu2.commitStats0.committedInstType::SimdDiv            0      0.00%     75.36% # Class of committed instruction. (Count)
system.cpu2.commitStats0.committedInstType::SimdSqrt            0      0.00%     75.36% # Class of committed instruction. (Count)
system.cpu2.commitStats0.committedInstType::SimdFloatAdd         4756      0.18%     75.54% # Class of committed instruction. (Count)
system.cpu2.commitStats0.committedInstType::SimdFloatAlu            0      0.00%     75.54% # Class of committed instruction. (Count)
system.cpu2.commitStats0.committedInstType::SimdFloatCmp            0      0.00%     75.54% # Class of committed instruction. (Count)
system.cpu2.commitStats0.committedInstType::SimdFloatCvt        13505      0.51%     76.05% # Class of committed instruction. (Count)
system.cpu2.commitStats0.committedInstType::SimdFloatDiv            3      0.00%     76.05% # Class of committed instruction. (Count)
system.cpu2.commitStats0.committedInstType::SimdFloatMisc            0      0.00%     76.05% # Class of committed instruction. (Count)
system.cpu2.commitStats0.committedInstType::SimdFloatMult         4759      0.18%     76.23% # Class of committed instruction. (Count)
system.cpu2.commitStats0.committedInstType::SimdFloatMultAcc            0      0.00%     76.23% # Class of committed instruction. (Count)
system.cpu2.commitStats0.committedInstType::SimdFloatMatMultAcc            0      0.00%     76.23% # Class of committed instruction. (Count)
system.cpu2.commitStats0.committedInstType::SimdFloatSqrt            0      0.00%     76.23% # Class of committed instruction. (Count)
system.cpu2.commitStats0.committedInstType::SimdReduceAdd            0      0.00%     76.23% # Class of committed instruction. (Count)
system.cpu2.commitStats0.committedInstType::SimdReduceAlu            0      0.00%     76.23% # Class of committed instruction. (Count)
system.cpu2.commitStats0.committedInstType::SimdReduceCmp            0      0.00%     76.23% # Class of committed instruction. (Count)
system.cpu2.commitStats0.committedInstType::SimdFloatReduceAdd            0      0.00%     76.23% # Class of committed instruction. (Count)
system.cpu2.commitStats0.committedInstType::SimdFloatReduceCmp            0      0.00%     76.23% # Class of committed instruction. (Count)
system.cpu2.commitStats0.committedInstType::SimdAes            0      0.00%     76.23% # Class of committed instruction. (Count)
system.cpu2.commitStats0.committedInstType::SimdAesMix            0      0.00%     76.23% # Class of committed instruction. (Count)
system.cpu2.commitStats0.committedInstType::SimdSha1Hash            0      0.00%     76.23% # Class of committed instruction. (Count)
system.cpu2.commitStats0.committedInstType::SimdSha1Hash2            0      0.00%     76.23% # Class of committed instruction. (Count)
system.cpu2.commitStats0.committedInstType::SimdSha256Hash            0      0.00%     76.23% # Class of committed instruction. (Count)
system.cpu2.commitStats0.committedInstType::SimdSha256Hash2            0      0.00%     76.23% # Class of committed instruction. (Count)
system.cpu2.commitStats0.committedInstType::SimdShaSigma2            0      0.00%     76.23% # Class of committed instruction. (Count)
system.cpu2.commitStats0.committedInstType::SimdShaSigma3            0      0.00%     76.23% # Class of committed instruction. (Count)
system.cpu2.commitStats0.committedInstType::SimdPredAlu            0      0.00%     76.23% # Class of committed instruction. (Count)
system.cpu2.commitStats0.committedInstType::Matrix            0      0.00%     76.23% # Class of committed instruction. (Count)
system.cpu2.commitStats0.committedInstType::MatrixMov            0      0.00%     76.23% # Class of committed instruction. (Count)
system.cpu2.commitStats0.committedInstType::MatrixOP            0      0.00%     76.23% # Class of committed instruction. (Count)
system.cpu2.commitStats0.committedInstType::MemRead       305899     11.57%     87.80% # Class of committed instruction. (Count)
system.cpu2.commitStats0.committedInstType::MemWrite       210611      7.97%     95.77% # Class of committed instruction. (Count)
system.cpu2.commitStats0.committedInstType::FloatMemRead        55411      2.10%     97.87% # Class of committed instruction. (Count)
system.cpu2.commitStats0.committedInstType::FloatMemWrite        56324      2.13%    100.00% # Class of committed instruction. (Count)
system.cpu2.commitStats0.committedInstType::IprAccess            0      0.00%    100.00% # Class of committed instruction. (Count)
system.cpu2.commitStats0.committedInstType::InstPrefetch            0      0.00%    100.00% # Class of committed instruction. (Count)
system.cpu2.commitStats0.committedInstType::SimdUnitStrideLoad            0      0.00%    100.00% # Class of committed instruction. (Count)
system.cpu2.commitStats0.committedInstType::SimdUnitStrideStore            0      0.00%    100.00% # Class of committed instruction. (Count)
system.cpu2.commitStats0.committedInstType::SimdUnitStrideMaskLoad            0      0.00%    100.00% # Class of committed instruction. (Count)
system.cpu2.commitStats0.committedInstType::SimdUnitStrideMaskStore            0      0.00%    100.00% # Class of committed instruction. (Count)
system.cpu2.commitStats0.committedInstType::SimdStridedLoad            0      0.00%    100.00% # Class of committed instruction. (Count)
system.cpu2.commitStats0.committedInstType::SimdStridedStore            0      0.00%    100.00% # Class of committed instruction. (Count)
system.cpu2.commitStats0.committedInstType::SimdIndexedLoad            0      0.00%    100.00% # Class of committed instruction. (Count)
system.cpu2.commitStats0.committedInstType::SimdIndexedStore            0      0.00%    100.00% # Class of committed instruction. (Count)
system.cpu2.commitStats0.committedInstType::SimdWholeRegisterLoad            0      0.00%    100.00% # Class of committed instruction. (Count)
system.cpu2.commitStats0.committedInstType::SimdWholeRegisterStore            0      0.00%    100.00% # Class of committed instruction. (Count)
system.cpu2.commitStats0.committedInstType::SimdUnitStrideFaultOnlyFirstLoad            0      0.00%    100.00% # Class of committed instruction. (Count)
system.cpu2.commitStats0.committedInstType::SimdUnitStrideSegmentedLoad            0      0.00%    100.00% # Class of committed instruction. (Count)
system.cpu2.commitStats0.committedInstType::SimdUnitStrideSegmentedStore            0      0.00%    100.00% # Class of committed instruction. (Count)
system.cpu2.commitStats0.committedInstType::SimdExt            0      0.00%    100.00% # Class of committed instruction. (Count)
system.cpu2.commitStats0.committedInstType::SimdFloatExt            0      0.00%    100.00% # Class of committed instruction. (Count)
system.cpu2.commitStats0.committedInstType::SimdConfig            0      0.00%    100.00% # Class of committed instruction. (Count)
system.cpu2.commitStats0.committedInstType::total      2642945                       # Class of committed instruction. (Count)
system.cpu2.commitStats0.committedControl::IsControl       280515                       # Class of control type instructions committed (Count)
system.cpu2.commitStats0.committedControl::IsDirectControl       241898                       # Class of control type instructions committed (Count)
system.cpu2.commitStats0.committedControl::IsIndirectControl        38589                       # Class of control type instructions committed (Count)
system.cpu2.commitStats0.committedControl::IsCondControl       200490                       # Class of control type instructions committed (Count)
system.cpu2.commitStats0.committedControl::IsUncondControl        79997                       # Class of control type instructions committed (Count)
system.cpu2.commitStats0.committedControl::IsCall        24321                       # Class of control type instructions committed (Count)
system.cpu2.commitStats0.committedControl::IsReturn        24310                       # Class of control type instructions committed (Count)
system.cpu2.exec_context.thread_0.numMatAluAccesses            0                       # Number of matrix alu accesses (Count)
system.cpu2.exec_context.thread_0.numCallsReturns        48631                       # Number of times a function call or return occured (Count)
system.cpu2.exec_context.thread_0.numMatInsts            0                       # Number of matrix instructions (Count)
system.cpu2.exec_context.thread_0.numIdleCycles 203305066.998112                       # Number of idle cycles (Cycle)
system.cpu2.exec_context.thread_0.numBusyCycles 12039487.001888                       # Number of busy cycles (Cycle)
system.cpu2.exec_context.thread_0.notIdleFraction     0.055908                       # Percentage of non-idle cycles (Ratio)
system.cpu2.exec_context.thread_0.idleFraction     0.944092                       # Percentage of idle cycles (Ratio)
system.cpu2.executeStats0.numInsts                  0                       # Number of executed instructions (Count)
system.cpu2.executeStats0.numNop                    0                       # Number of nop insts executed (Count)
system.cpu2.executeStats0.numBranches               0                       # Number of branches executed (Count)
system.cpu2.executeStats0.numLoadInsts              0                       # Number of load instructions executed (Count)
system.cpu2.executeStats0.numStoreInsts        628245                       # Number of stores executed (Count)
system.cpu2.executeStats0.instRate                  0                       # Inst execution rate ((Count/Cycle))
system.cpu2.executeStats0.numFpAluAccesses       166910                       # Number of float alu accesses (Count)
system.cpu2.executeStats0.numFpRegReads        153738                       # Number of times the floating registers were read (Count)
system.cpu2.executeStats0.numFpRegWrites       101249                       # Number of times the floating registers were written (Count)
system.cpu2.executeStats0.numIntAluAccesses      2520569                       # Number of integer alu accesses (Count)
system.cpu2.executeStats0.numIntRegReads      2711816                       # Number of times the integer registers were read (Count)
system.cpu2.executeStats0.numIntRegWrites      1728547                       # Number of times the integer registers were written (Count)
system.cpu2.executeStats0.numMemRefs           628245                       # Number of memory refs (Count)
system.cpu2.executeStats0.numMiscRegReads      1217165                       # Number of times the Misc registers were read (Count)
system.cpu2.executeStats0.numMiscRegWrites          236                       # Number of times the Misc registers were written (Count)
system.cpu2.executeStats0.numVecAluAccesses            0                       # Number of vector alu accesses (Count)
system.cpu2.executeStats0.numDiscardedOps            0                       # Number of ops (including micro ops) which were discarded before commit (Count)
system.cpu2.fetchStats0.numInsts              1397129                       # Number of instructions fetched (thread level) (Count)
system.cpu2.fetchStats0.numOps                2642945                       # Number of ops (including micro ops) fetched (thread level) (Count)
system.cpu2.fetchStats0.fetchRate            0.006488                       # Number of inst fetches per cycle ((Count/Cycle))
system.cpu2.fetchStats0.numBranches            280515                       # Number of branches fetched (Count)
system.cpu2.fetchStats0.branchRate           0.001303                       # Number of branch fetches per cycle (Ratio)
system.cpu2.fetchStats0.numFetchSuspends            0                       # Number of times Execute suspended instruction fetching (Count)
system.cpu2.interrupts.clk_domain.clock          8000                       # Clock period in ticks (Tick)
system.cpu2.mmu.dtb.rdAccesses                 361335                       # TLB accesses on read requests (Count)
system.cpu2.mmu.dtb.wrAccesses                 267197                       # TLB accesses on write requests (Count)
system.cpu2.mmu.dtb.rdMisses                     1105                       # TLB misses on read requests (Count)
system.cpu2.mmu.dtb.wrMisses                      252                       # TLB misses on write requests (Count)
system.cpu2.mmu.dtb.walker.power_state.pwrStateResidencyTicks::UNDEFINED 107672277000                       # Cumulative time (in ticks) in various power states (Tick)
system.cpu2.mmu.itb.rdAccesses                      0                       # TLB accesses on read requests (Count)
system.cpu2.mmu.itb.wrAccesses                1906949                       # TLB accesses on write requests (Count)
system.cpu2.mmu.itb.rdMisses                        0                       # TLB misses on read requests (Count)
system.cpu2.mmu.itb.wrMisses                      279                       # TLB misses on write requests (Count)
system.cpu2.mmu.itb.walker.power_state.pwrStateResidencyTicks::UNDEFINED 107672277000                       # Cumulative time (in ticks) in various power states (Tick)
system.cpu2.power_state.numTransitions              8                       # Number of power state transitions (Count)
system.cpu2.power_state.ticksClkGated::samples            4                       # Distribution of time spent in the clock gated state (Tick)
system.cpu2.power_state.ticksClkGated::mean    497651500                       # Distribution of time spent in the clock gated state (Tick)
system.cpu2.power_state.ticksClkGated::stdev 973279246.445490                       # Distribution of time spent in the clock gated state (Tick)
system.cpu2.power_state.ticksClkGated::1000-5e+10            4    100.00%    100.00% # Distribution of time spent in the clock gated state (Tick)
system.cpu2.power_state.ticksClkGated::min_value      5493000                       # Distribution of time spent in the clock gated state (Tick)
system.cpu2.power_state.ticksClkGated::max_value   1957541500                       # Distribution of time spent in the clock gated state (Tick)
system.cpu2.power_state.ticksClkGated::total            4                       # Distribution of time spent in the clock gated state (Tick)
system.cpu2.power_state.pwrStateResidencyTicks::ON 105681671000                       # Cumulative time (in ticks) in various power states (Tick)
system.cpu2.power_state.pwrStateResidencyTicks::CLK_GATED   1990606000                       # Cumulative time (in ticks) in various power states (Tick)
system.cpu2.thread_0.numInsts                       0                       # Number of Instructions committed (Count)
system.cpu2.thread_0.numOps                         0                       # Number of Ops committed (Count)
system.cpu2.thread_0.numMemRefs                     0                       # Number of Memory References (Count)
system.cpu3.allLatencyDist::bucket_size         10000                       # delay distribution for all (Unspecified)
system.cpu3.allLatencyDist::min_bucket              0                       # delay distribution for all (Unspecified)
system.cpu3.allLatencyDist::max_bucket        1599999                       # delay distribution for all (Unspecified)
system.cpu3.allLatencyDist::samples             12288                       # delay distribution for all (Unspecified)
system.cpu3.allLatencyDist::mean         796929.931641                       # delay distribution for all (Unspecified)
system.cpu3.allLatencyDist::stdev        323014.352447                       # delay distribution for all (Unspecified)
system.cpu3.allLatencyDist::underflows              0      0.00%      0.00% # delay distribution for all (Unspecified)
system.cpu3.allLatencyDist               |           0      0.00%      0.00% |           0      0.00%      0.00% |           0      0.00%      0.00% |           0      0.00%      0.00% |           0      0.00%      0.00% |           0      0.00%      0.00% |           0      0.00%      0.00% |           0      0.00%      0.00% |           0      0.00%      0.00% |           0      0.00%      0.00% |           0      0.00%      0.00% |           0      0.00%      0.00% |           0      0.00%      0.00% |           0      0.00%      0.00% |           0      0.00%      0.00% |           0      0.00%      0.00% |           0      0.00%      0.00% |           0      0.00%      0.00% |           0      0.00%      0.00% |           0      0.00%      0.00% |           0      0.00%      0.00% |           0      0.00%      0.00% |           0      0.00%      0.00% |           0      0.00%      0.00% |           0      0.00%      0.00% |           0      0.00%      0.00% |           0      0.00%      0.00% |           0      0.00%      0.00% |           0      0.00%      0.00% |           0      0.00%      0.00% |           0      0.00%      0.00% |           0      0.00%      0.00% |           0      0.00%      0.00% |           0      0.00%      0.00% |         709      5.77%      5.77% |         593      4.83%     10.60% |         148      1.20%     11.80% |          83      0.68%     12.48% |          85      0.69%     13.17% |         135      1.10%     14.27% |         110      0.90%     15.16% |         136      1.11%     16.27% |         133      1.08%     17.35% |         111      0.90%     18.25% |         168      1.37%     19.62% |          77      0.63%     20.25% |          55      0.45%     20.69% |          99      0.81%     21.50% |          80      0.65%     22.15% |          80      0.65%     22.80% |          48      0.39%     23.19% |          75      0.61%     23.80% |          69      0.56%     24.37% |          74      0.60%     24.97% |          70      0.57%     25.54% |         103      0.84%     26.38% |          89      0.72%     27.10% |         122      0.99%     28.09% |         117      0.95%     29.04% |         136      1.11%     30.15% |         104      0.85%     31.00% |         122      0.99%     31.99% |         107      0.87%     32.86% |         144      1.17%     34.03% |         109      0.89%     34.92% |         166      1.35%     36.27% |         129      1.05%     37.32% |         179      1.46%     38.78% |         163      1.33%     40.10% |         172      1.40%     41.50% |         186      1.51%     43.02% |         187      1.52%     44.54% |         176      1.43%     45.97% |         148      1.20%     47.18% |         133      1.08%     48.26% |         148      1.20%     49.46% |         153      1.25%     50.71% |         115      0.94%     51.64% |         127      1.03%     52.68% |         133      1.08%     53.76% |         145      1.18%     54.94% |         143      1.16%     56.10% |         141      1.15%     57.25% |         108      0.88%     58.13% |         118      0.96%     59.09% |         137      1.11%     60.21% |         135      1.10%     61.30% |         110      0.90%     62.20% |         127      1.03%     63.23% |          89      0.72%     63.96% |         110      0.90%     64.85% |          98      0.80%     65.65% |         110      0.90%     66.54% |          76      0.62%     67.16% |         104      0.85%     68.01% |         102      0.83%     68.84% |          94      0.76%     69.60% |         104      0.85%     70.45% |         107      0.87%     71.32% |         104      0.85%     72.17% |         111      0.90%     73.07% |          94      0.76%     73.84% |          80      0.65%     74.49% |         127      1.03%     75.52% |          95      0.77%     76.29% |         124      1.01%     77.30% |         106      0.86%     78.17% |          84      0.68%     78.85% |          98      0.80%     79.65% |          93      0.76%     80.40% |         102      0.83%     81.23% |         103      0.84%     82.07% |          82      0.67%     82.74% |         103      0.84%     83.58% |          87      0.71%     84.29% |          83      0.68%     84.96% |          88      0.72%     85.68% |          87      0.71%     86.39% |          80      0.65%     87.04% |          80      0.65%     87.69% |          80      0.65%     88.34% |          73      0.59%     88.93% |          79      0.64%     89.58% |          76      0.62%     90.19% |          54      0.44%     90.63% |          72      0.59%     91.22% |          67      0.55%     91.76% |          66      0.54%     92.30% |          72      0.59%     92.89% |          71      0.58%     93.47% |          59      0.48%     93.95% |          98      0.80%     94.74% |          49      0.40%     95.14% |          43      0.35%     95.49% |          33      0.27%     95.76% |          33      0.27%     96.03% |          29      0.24%     96.26% |          33      0.27%     96.53% |          28      0.23%     96.76% |          23      0.19%     96.95% |          30      0.24%     97.19% |          17      0.14%     97.33% |          17      0.14%     97.47% |          13      0.11%     97.57% |          21      0.17%     97.75% |          13      0.11%     97.85% |          13      0.11%     97.96% |          18      0.15%     98.10% |          13      0.11%     98.21% |          12      0.10%     98.31% |           7      0.06%     98.36% |           6      0.05%     98.41% |           9      0.07%     98.49% |          12      0.10%     98.58% |          10      0.08%     98.67% |          11      0.09%     98.75% |           5      0.04%     98.80% |           6      0.05%     98.84% |           9      0.07%     98.92% |           7      0.06%     98.97% # delay distribution for all (Unspecified)
system.cpu3.allLatencyDist::overflows             126      1.03%    100.00% # delay distribution for all (Unspecified)
system.cpu3.allLatencyDist::min_value          343000                       # delay distribution for all (Unspecified)
system.cpu3.allLatencyDist::max_value         2174000                       # delay distribution for all (Unspecified)
system.cpu3.allLatencyDist::total               12288                       # delay distribution for all (Unspecified)
system.cpu3.loadLatencyDist::bucket_size        10000                       # delay distribution for loads (Unspecified)
system.cpu3.loadLatencyDist::min_bucket             0                       # delay distribution for loads (Unspecified)
system.cpu3.loadLatencyDist::max_bucket       1599999                       # delay distribution for loads (Unspecified)
system.cpu3.loadLatencyDist::samples             8192                       # delay distribution for loads (Unspecified)
system.cpu3.loadLatencyDist::mean        802090.209961                       # delay distribution for loads (Unspecified)
system.cpu3.loadLatencyDist::stdev       353066.508619                       # delay distribution for loads (Unspecified)
system.cpu3.loadLatencyDist::underflows             0      0.00%      0.00% # delay distribution for loads (Unspecified)
system.cpu3.loadLatencyDist              |           0      0.00%      0.00% |           0      0.00%      0.00% |           0      0.00%      0.00% |           0      0.00%      0.00% |           0      0.00%      0.00% |           0      0.00%      0.00% |           0      0.00%      0.00% |           0      0.00%      0.00% |           0      0.00%      0.00% |           0      0.00%      0.00% |           0      0.00%      0.00% |           0      0.00%      0.00% |           0      0.00%      0.00% |           0      0.00%      0.00% |           0      0.00%      0.00% |           0      0.00%      0.00% |           0      0.00%      0.00% |           0      0.00%      0.00% |           0      0.00%      0.00% |           0      0.00%      0.00% |           0      0.00%      0.00% |           0      0.00%      0.00% |           0      0.00%      0.00% |           0      0.00%      0.00% |           0      0.00%      0.00% |           0      0.00%      0.00% |           0      0.00%      0.00% |           0      0.00%      0.00% |           0      0.00%      0.00% |           0      0.00%      0.00% |           0      0.00%      0.00% |           0      0.00%      0.00% |           0      0.00%      0.00% |           0      0.00%      0.00% |         709      8.65%      8.65% |         589      7.19%     15.84% |         126      1.54%     17.38% |          66      0.81%     18.19% |          61      0.74%     18.93% |          93      1.14%     20.07% |          84      1.03%     21.09% |          88      1.07%     22.17% |          74      0.90%     23.07% |          60      0.73%     23.80% |          96      1.17%     24.98% |          43      0.52%     25.50% |          30      0.37%     25.87% |          53      0.65%     26.51% |          50      0.61%     27.12% |          43      0.52%     27.65% |          25      0.31%     27.95% |          43      0.52%     28.48% |          38      0.46%     28.94% |          38      0.46%     29.41% |          39      0.48%     29.88% |          56      0.68%     30.57% |          46      0.56%     31.13% |          62      0.76%     31.88% |          63      0.77%     32.65% |          74      0.90%     33.56% |          54      0.66%     34.22% |          65      0.79%     35.01% |          55      0.67%     35.68% |          74      0.90%     36.58% |          61      0.74%     37.33% |          88      1.07%     38.40% |          68      0.83%     39.23% |          94      1.15%     40.38% |          86      1.05%     41.43% |          92      1.12%     42.55% |          97      1.18%     43.74% |         102      1.25%     44.98% |          91      1.11%     46.09% |          76      0.93%     47.02% |          72      0.88%     47.90% |          80      0.98%     48.88% |          81      0.99%     49.87% |          61      0.74%     50.61% |          69      0.84%     51.45% |          70      0.85%     52.31% |          75      0.92%     53.22% |          76      0.93%     54.15% |          77      0.94%     55.09% |          59      0.72%     55.81% |          64      0.78%     56.59% |          73      0.89%     57.48% |          73      0.89%     58.37% |          58      0.71%     59.08% |          68      0.83%     59.91% |          48      0.59%     60.50% |          57      0.70%     61.19% |          53      0.65%     61.84% |          59      0.72%     62.56% |          41      0.50%     63.06% |          54      0.66%     63.72% |          56      0.68%     64.40% |          55      0.67%     65.08% |          59      0.72%     65.80% |          66      0.81%     66.60% |          64      0.78%     67.38% |          75      0.92%     68.30% |          66      0.81%     69.10% |          55      0.67%     69.78% |          86      1.05%     70.83% |          67      0.82%     71.64% |          86      1.05%     72.69% |          77      0.94%     73.63% |          58      0.71%     74.34% |          74      0.90%     75.24% |          71      0.87%     76.11% |          78      0.95%     77.06% |          77      0.94%     78.00% |          60      0.73%     78.74% |          79      0.96%     79.70% |          65      0.79%     80.49% |          62      0.76%     81.25% |          64      0.78%     82.03% |          64      0.78%     82.81% |          62      0.76%     83.57% |          62      0.76%     84.33% |          63      0.77%     85.10% |          61      0.74%     85.84% |          61      0.74%     86.58% |          63      0.77%     87.35% |          44      0.54%     87.89% |          64      0.78%     88.67% |          55      0.67%     89.34% |          64      0.78%     90.12% |          66      0.81%     90.93% |          69      0.84%     91.77% |          54      0.66%     92.43% |          89      1.09%     93.52% |          41      0.50%     94.02% |          38      0.46%     94.48% |          27      0.33%     94.81% |          27      0.33%     95.14% |          24      0.29%     95.43% |          27      0.33%     95.76% |          24      0.29%     96.06% |          18      0.22%     96.28% |          23      0.28%     96.56% |          14      0.17%     96.73% |          16      0.20%     96.92% |          11      0.13%     97.06% |          16      0.20%     97.25% |          12      0.15%     97.40% |           9      0.11%     97.51% |          15      0.18%     97.69% |          12      0.15%     97.84% |           9      0.11%     97.95% |           7      0.09%     98.03% |           5      0.06%     98.10% |           9      0.11%     98.21% |          11      0.13%     98.34% |           9      0.11%     98.45% |           9      0.11%     98.56% |           5      0.06%     98.62% |           6      0.07%     98.69% |           8      0.10%     98.79% |           7      0.09%     98.88% # delay distribution for loads (Unspecified)
system.cpu3.loadLatencyDist::overflows             92      1.12%    100.00% # delay distribution for loads (Unspecified)
system.cpu3.loadLatencyDist::min_value         343000                       # delay distribution for loads (Unspecified)
system.cpu3.loadLatencyDist::max_value        2174000                       # delay distribution for loads (Unspecified)
system.cpu3.loadLatencyDist::total               8192                       # delay distribution for loads (Unspecified)
system.cpu3.storeLatencyDist::bucket_size        10000                       # delay distribution for stores (Unspecified)
system.cpu3.storeLatencyDist::min_bucket            0                       # delay distribution for stores (Unspecified)
system.cpu3.storeLatencyDist::max_bucket      1599999                       # delay distribution for stores (Unspecified)
system.cpu3.storeLatencyDist::samples            4096                       # delay distribution for stores (Unspecified)
system.cpu3.storeLatencyDist::mean       786609.375000                       # delay distribution for stores (Unspecified)
system.cpu3.storeLatencyDist::stdev      252118.235437                       # delay distribution for stores (Unspecified)
system.cpu3.storeLatencyDist::underflows            0      0.00%      0.00% # delay distribution for stores (Unspecified)
[...]
system.cpu3.cacheBlockRoundTrip7::overflows            0                       # Coalsr-to-coalsr time for the Nth cache block in an inst (Unspecified)
system.cpu3.cacheBlockRoundTrip7::min_value            0                       # Coalsr-to-coalsr time for the Nth cache block in an inst (Unspecified)
system.cpu3.cacheBlockRoundTrip7::max_value            0                       # Coalsr-to-coalsr time for the Nth cache block in an inst (Unspecified)
system.cpu3.cacheBlockRoundTrip7::total             0                       # Coalsr-to-coalsr time for the Nth cache block in an inst (Unspecified)
system.cpu3.cacheBlockRoundTrip8::bucket_size        10000                       # Coalsr-to-coalsr time for the Nth cache block in an inst (Unspecified)
system.cpu3.cacheBlockRoundTrip8::min_bucket            0                       # Coalsr-to-coalsr time for the Nth cache block in an inst (Unspecified)
system.cpu3.cacheBlockRoundTrip8::max_bucket      1599999                       # Coalsr-to-coalsr time for the Nth cache block in an inst (Unspecified)
system.cpu3.cacheBlockRoundTrip8::samples            0                       # Coalsr-to-coalsr time for the Nth cache block in an inst (Unspecified)
system.cpu3.cacheBlockRoundTrip8::mean            nan                       # Coalsr-to-coalsr time for the Nth cache block in an inst (Unspecified)
system.cpu3.cacheBlockRoundTrip8::stdev           nan                       # Coalsr-to-coalsr time for the Nth cache block in an inst (Unspecified)
system.cpu3.cacheBlockRoundTrip8::underflows            0                       # Coalsr-to-coalsr time for the Nth cache block in an inst (Unspecified)
system.cpu3.cacheBlockRoundTrip8         |           0                       |           0                       |           0                       |           0                       |           0                       |           0                       |           0                       |           0                       |           0                       |           0                       |           0                       |           0                       |           0                       |           0                       |           0                       |           0                       |           0                       |           0                       |           0                       |           0                       |           0                       |           0                       |           0                       |           0                       |           0                       |           0                       |           0                       |           0                       |           0                       |           0                       |           0                       |           0                       |           0                       |           0                       |           0                       |           0                       |           0                       |           0                       |           0                       |           0                       |           0                       |           0                       |           0                       |           0                       |           0                       |           0                       |           0                       |           0                       |           0                       |           0                       |           0                       |           0                       |           0                       |           0                       |           0                       |           0                       |           0                       |           0                       |           0                       |           0                       |           0                       |           0                       |           0                       |           0                       |           0                       |           0                       |           0                       |           0                       |           0                       |           0                       |           0                       |           0                       |           0                       |           0                       |           0                       |           0                       |           0                       |           0                       |           0                       |           0                       |           0                       |           0                       |           0                       |           0                       |           0                       |           0                       |           0                       |           0                       |           0                       |           0                       |           0                       |           0                       |           0                       |           0                       |           0                       |           0                       |           0                       |           0                       |           0                       |           0                       |           0                       |           0                       |           0                       |           0                       |           0                       |           0                       |           0                       |           0                       |           0                       |           0                       |           0                       |           0                       |           0                       |           0                       |           0                       |           0                       |           0                       |           0                       |           0                       |           0                       |           0                       |           0                       |           0                       |           0                       |           0                       |           0                       |           0                       |           0                       |           0                       |           0                       |           0                       |           0                       |           0                       |           0                       |           0                       |           0                       |           0                       |           0                       |           0                       |           0                       |           0                       |           0                       |           0                       |           0                       |           0                       |           0                       |           0                       |           0                       |           0                       |           0                       |           0                       |           0                       |           0                       |           0                       |           0                       |           0                       |           0                       |           0                       |           0                       |           0                       # Coalsr-to-coalsr time for the Nth cache block in an inst (Unspecified)
system.cpu3.cacheBlockRoundTrip8::overflows            0                       # Coalsr-to-coalsr time for the Nth cache block in an inst (Unspecified)
system.cpu3.cacheBlockRoundTrip8::min_value            0                       # Coalsr-to-coalsr time for the Nth cache block in an inst (Unspecified)
system.cpu3.cacheBlockRoundTrip8::max_value            0                       # Coalsr-to-coalsr time for the Nth cache block in an inst (Unspecified)
system.cpu3.cacheBlockRoundTrip8::total             0                       # Coalsr-to-coalsr time for the Nth cache block in an inst (Unspecified)
system.cpu3.cacheBlockRoundTrip9::bucket_size        10000                       # Coalsr-to-coalsr time for the Nth cache block in an inst (Unspecified)
system.cpu3.cacheBlockRoundTrip9::min_bucket            0                       # Coalsr-to-coalsr time for the Nth cache block in an inst (Unspecified)
system.cpu3.cacheBlockRoundTrip9::max_bucket      1599999                       # Coalsr-to-coalsr time for the Nth cache block in an inst (Unspecified)
system.cpu3.cacheBlockRoundTrip9::samples            0                       # Coalsr-to-coalsr time for the Nth cache block in an inst (Unspecified)
system.cpu3.cacheBlockRoundTrip9::mean            nan                       # Coalsr-to-coalsr time for the Nth cache block in an inst (Unspecified)
system.cpu3.cacheBlockRoundTrip9::stdev           nan                       # Coalsr-to-coalsr time for the Nth cache block in an inst (Unspecified)
system.cpu3.cacheBlockRoundTrip9::underflows            0                       # Coalsr-to-coalsr time for the Nth cache block in an inst (Unspecified)
system.cpu3.cacheBlockRoundTrip9         |           0                       |           0                       |           0                       |           0                       |           0                       |           0                       |           0                       |           0                       |           0                       |           0                       |           0                       |           0                       |           0                       |           0                       |           0                       |           0                       |           0                       |           0                       |           0                       |           0                       |           0                       |           0                       |           0                       |           0                       |           0                       |           0                       |           0                       |           0                       |           0                       |           0                       |           0                       |           0                       |           0                       |           0                       |           0                       |           0                       |           0                       |           0                       |           0                       |           0                       |           0                       |           0                       |           0                       |           0                       |           0                       |           0                       |           0                       |           0                       |           0                       |           0                       |           0                       |           0                       |           0                       |           0                       |           0                       |           0                       |           0                       |           0                       |           0                       |           0                       |           0                       |           0                       |           0                       |           0                       |           0                       |           0                       |           0                       |           0                       |           0                       |           0                       |           0                       |           0                       |           0                       |           0                       |           0                       |           0                       |           0                       |           0                       |           0                       |           0                       |           0                       |           0                       |           0                       |           0                       |           0                       |           0                       |           0                       |           0                       |           0                       |           0                       |           0                       |           0                       |           0                       |           0                       |           0                       |           0                       |           0                       |           0                       |           0                       |           0                       |           0                       |           0                       |           0                       |           0                       |           0                       |           0                       |           0                       |           0                       |           0                       |           0                       |           0                       |           0                       |           0                       |           0                       |           0                       |           0                       |           0                       |           0                       |           0                       |           0                       |           0                       |           0                       |           0                       |           0                       |           0                       |           0                       |           0                       |           0                       |           0                       |           0                       |           0                       |           0                       |           0                       |           0                       |           0                       |           0                       |           0                       |           0                       |           0                       |           0                       |           0                       |           0                       |           0                       |           0                       |           0                       |           0                       |           0                       |           0                       |           0                       |           0                       |           0                       |           0                       |           0                       |           0                       |           0                       |           0                       |           0                       |           0                       |           0                       |           0                       # Coalsr-to-coalsr time for the Nth cache block in an inst (Unspecified)
system.cpu3.cacheBlockRoundTrip9::overflows            0                       # Coalsr-to-coalsr time for the Nth cache block in an inst (Unspecified)
system.cpu3.cacheBlockRoundTrip9::min_value            0                       # Coalsr-to-coalsr time for the Nth cache block in an inst (Unspecified)
system.cpu3.cacheBlockRoundTrip9::max_value            0                       # Coalsr-to-coalsr time for the Nth cache block in an inst (Unspecified)
system.cpu3.cacheBlockRoundTrip9::total             0                       # Coalsr-to-coalsr time for the Nth cache block in an inst (Unspecified)

---------- End Simulation Statistics   ----------
