
---------- Begin Simulation Statistics ----------
simSeconds                                   0.059524                       # Number of seconds simulated (Second)
simTicks                                  59523680403                       # Number of ticks simulated (Tick)
finalTick                                 59523680403                       # Number of ticks from beginning of simulation (restored from checkpoints and never reset) (Tick)
simFreq                                  1000000000000                       # The number of ticks per simulated second ((Tick/Second))
hostSeconds                                    544.18                       # Real time elapsed on the host (Second)
hostTickRate                                109382302                       # The number of ticks simulated per host second (ticks/s) ((Tick/Second))
hostMemory                                    2770032                       # Number of bytes of host memory used (Byte)
simInsts                                     52322342                       # Number of instructions simulated (Count)
simOps                                       84018478                       # Number of ops (including micro ops) simulated (Count)
hostInstRate                                    96149                       # Simulator instruction rate (inst/s) ((Count/Second))
hostOpRate                                     154395                       # Simulator op (including micro ops) rate (op/s) ((Count/Second))
board.cache_hierarchy.ruby_system.delayHistogram::bucket_size         1024                       # delay histogram for all message (Unspecified)
board.cache_hierarchy.ruby_system.delayHistogram::max_bucket        10239                       # delay histogram for all message (Unspecified)
board.cache_hierarchy.ruby_system.delayHistogram::samples      5342808                       # delay histogram for all message (Unspecified)
board.cache_hierarchy.ruby_system.delayHistogram::mean     1.137586                       # delay histogram for all message (Unspecified)
board.cache_hierarchy.ruby_system.delayHistogram::stdev     8.748725                       # delay histogram for all message (Unspecified)
board.cache_hierarchy.ruby_system.delayHistogram |     5342797    100.00%    100.00% |           2      0.00%    100.00% |           1      0.00%    100.00% |           2      0.00%    100.00% |           1      0.00%    100.00% |           1      0.00%    100.00% |           1      0.00%    100.00% |           1      0.00%    100.00% |           1      0.00%    100.00% |           1      0.00%    100.00% # delay histogram for all message (Unspecified)
board.cache_hierarchy.ruby_system.delayHistogram::total      5342808                       # delay histogram for all message (Unspecified)
board.cache_hierarchy.ruby_system.m_outstandReqHistSeqr::bucket_size            1                       (Unspecified)
board.cache_hierarchy.ruby_system.m_outstandReqHistSeqr::max_bucket            9                       (Unspecified)
board.cache_hierarchy.ruby_system.m_outstandReqHistSeqr::samples     49944315                       (Unspecified)
board.cache_hierarchy.ruby_system.m_outstandReqHistSeqr::mean     1.216485                       (Unspecified)
board.cache_hierarchy.ruby_system.m_outstandReqHistSeqr::gmean     1.160071                       (Unspecified)
board.cache_hierarchy.ruby_system.m_outstandReqHistSeqr::stdev     0.424934                       (Unspecified)
board.cache_hierarchy.ruby_system.m_outstandReqHistSeqr |           0      0.00%      0.00% |    39405562     78.90%     78.90% |    10265309     20.55%     99.45% |      273444      0.55%    100.00% |           0      0.00%    100.00% |           0      0.00%    100.00% |           0      0.00%    100.00% |           0      0.00%    100.00% |           0      0.00%    100.00% |           0      0.00%    100.00% (Unspecified)
board.cache_hierarchy.ruby_system.m_outstandReqHistSeqr::total     49944315                       (Unspecified)
board.cache_hierarchy.ruby_system.m_latencyHistSeqr::bucket_size          256                       (Unspecified)
board.cache_hierarchy.ruby_system.m_latencyHistSeqr::max_bucket         2559                       (Unspecified)
board.cache_hierarchy.ruby_system.m_latencyHistSeqr::samples     49944348                       (Unspecified)
board.cache_hierarchy.ruby_system.m_latencyHistSeqr::mean     6.043939                       (Unspecified)
board.cache_hierarchy.ruby_system.m_latencyHistSeqr::gmean     1.091757                       (Unspecified)
board.cache_hierarchy.ruby_system.m_latencyHistSeqr::stdev    45.347323                       (Unspecified)
board.cache_hierarchy.ruby_system.m_latencyHistSeqr |    49533888     99.18%     99.18% |      321196      0.64%     99.82% |       75429      0.15%     99.97% |        4635      0.01%     99.98% |        6975      0.01%    100.00% |        1878      0.00%    100.00% |         347      0.00%    100.00% |           0      0.00%    100.00% |           0      0.00%    100.00% |           0      0.00%    100.00% (Unspecified)
board.cache_hierarchy.ruby_system.m_latencyHistSeqr::total     49944348                       (Unspecified)
board.cache_hierarchy.ruby_system.m_hitLatencyHistSeqr::bucket_size            1                       (Unspecified)
board.cache_hierarchy.ruby_system.m_hitLatencyHistSeqr::max_bucket            9                       (Unspecified)
board.cache_hierarchy.ruby_system.m_hitLatencyHistSeqr::samples     49174823                       (Unspecified)
board.cache_hierarchy.ruby_system.m_hitLatencyHistSeqr::mean     1.000001                       (Unspecified)
board.cache_hierarchy.ruby_system.m_hitLatencyHistSeqr::gmean     1.000001                       (Unspecified)
board.cache_hierarchy.ruby_system.m_hitLatencyHistSeqr::stdev     0.000867                       (Unspecified)
board.cache_hierarchy.ruby_system.m_hitLatencyHistSeqr |           0      0.00%      0.00% |    49174786    100.00%    100.00% |          37      0.00%    100.00% |           0      0.00%    100.00% |           0      0.00%    100.00% |           0      0.00%    100.00% |           0      0.00%    100.00% |           0      0.00%    100.00% |           0      0.00%    100.00% |           0      0.00%    100.00% (Unspecified)
board.cache_hierarchy.ruby_system.m_hitLatencyHistSeqr::total     49174823                       (Unspecified)
board.cache_hierarchy.ruby_system.m_missLatencyHistSeqr::bucket_size          256                       (Unspecified)
board.cache_hierarchy.ruby_system.m_missLatencyHistSeqr::max_bucket         2559                       (Unspecified)
board.cache_hierarchy.ruby_system.m_missLatencyHistSeqr::samples       769525                       (Unspecified)
board.cache_hierarchy.ruby_system.m_missLatencyHistSeqr::mean   328.365828                       (Unspecified)
board.cache_hierarchy.ruby_system.m_missLatencyHistSeqr::gmean   298.166600                       (Unspecified)
board.cache_hierarchy.ruby_system.m_missLatencyHistSeqr::stdev   167.175709                       (Unspecified)
board.cache_hierarchy.ruby_system.m_missLatencyHistSeqr |      359065     46.66%     46.66% |      321196     41.74%     88.40% |       75429      9.80%     98.20% |        4635      0.60%     98.80% |        6975      0.91%     99.71% |        1878      0.24%     99.95% |         347      0.05%    100.00% |           0      0.00%    100.00% |           0      0.00%    100.00% |           0      0.00%    100.00% (Unspecified)
board.cache_hierarchy.ruby_system.m_missLatencyHistSeqr::total       769525                       (Unspecified)
board.cache_hierarchy.ruby_system.delayVCHist.vnet_0::bucket_size         1024                       # delay histogram for vnet_0 (Unspecified)
board.cache_hierarchy.ruby_system.delayVCHist.vnet_0::max_bucket        10239                       # delay histogram for vnet_0 (Unspecified)
board.cache_hierarchy.ruby_system.delayVCHist.vnet_0::samples      1909452                       # delay histogram for vnet_0 (Unspecified)
board.cache_hierarchy.ruby_system.delayVCHist.vnet_0::mean     2.158055                       # delay histogram for vnet_0 (Unspecified)
board.cache_hierarchy.ruby_system.delayVCHist.vnet_0::stdev    14.343271                       # delay histogram for vnet_0 (Unspecified)
board.cache_hierarchy.ruby_system.delayVCHist.vnet_0 |     1909441    100.00%    100.00% |           2      0.00%    100.00% |           1      0.00%    100.00% |           2      0.00%    100.00% |           1      0.00%    100.00% |           1      0.00%    100.00% |           1      0.00%    100.00% |           1      0.00%    100.00% |           1      0.00%    100.00% |           1      0.00%    100.00% # delay histogram for vnet_0 (Unspecified)
board.cache_hierarchy.ruby_system.delayVCHist.vnet_0::total      1909452                       # delay histogram for vnet_0 (Unspecified)
board.cache_hierarchy.ruby_system.delayVCHist.vnet_1::bucket_size           16                       # delay histogram for vnet_1 (Unspecified)
board.cache_hierarchy.ruby_system.delayVCHist.vnet_1::max_bucket          159                       # delay histogram for vnet_1 (Unspecified)
board.cache_hierarchy.ruby_system.delayVCHist.vnet_1::samples      3050765                       # delay histogram for vnet_1 (Unspecified)
board.cache_hierarchy.ruby_system.delayVCHist.vnet_1::mean     0.638603                       # delay histogram for vnet_1 (Unspecified)
board.cache_hierarchy.ruby_system.delayVCHist.vnet_1::stdev     2.053735                       # delay histogram for vnet_1 (Unspecified)
board.cache_hierarchy.ruby_system.delayVCHist.vnet_1 |     3045003     99.81%     99.81% |        5524      0.18%     99.99% |         164      0.01%    100.00% |          32      0.00%    100.00% |          13      0.00%    100.00% |          10      0.00%    100.00% |          13      0.00%    100.00% |           6      0.00%    100.00% |           0      0.00%    100.00% |           0      0.00%    100.00% # delay histogram for vnet_1 (Unspecified)
board.cache_hierarchy.ruby_system.delayVCHist.vnet_1::total      3050765                       # delay histogram for vnet_1 (Unspecified)
board.cache_hierarchy.ruby_system.delayVCHist.vnet_2::bucket_size            1                       # delay histogram for vnet_2 (Unspecified)
board.cache_hierarchy.ruby_system.delayVCHist.vnet_2::max_bucket            9                       # delay histogram for vnet_2 (Unspecified)
board.cache_hierarchy.ruby_system.delayVCHist.vnet_2::samples       382591                       # delay histogram for vnet_2 (Unspecified)
board.cache_hierarchy.ruby_system.delayVCHist.vnet_2::mean     0.023456                       # delay histogram for vnet_2 (Unspecified)
board.cache_hierarchy.ruby_system.delayVCHist.vnet_2::stdev     0.221115                       # delay histogram for vnet_2 (Unspecified)
board.cache_hierarchy.ruby_system.delayVCHist.vnet_2 |      378225     98.86%     98.86% |           0      0.00%     98.86% |        4245      1.11%     99.97% |           0      0.00%     99.97% |         121      0.03%    100.00% |           0      0.00%    100.00% |           0      0.00%    100.00% |           0      0.00%    100.00% |           0      0.00%    100.00% |           0      0.00%    100.00% # delay histogram for vnet_2 (Unspecified)
board.cache_hierarchy.ruby_system.delayVCHist.vnet_2::total       382591                       # delay histogram for vnet_2 (Unspecified)
board.cache_hierarchy.ruby_system.Directory_Controller.Fetch       760225      0.00%      0.00% (Unspecified)
board.cache_hierarchy.ruby_system.Directory_Controller.Data       502280      0.00%      0.00% (Unspecified)
board.cache_hierarchy.ruby_system.Directory_Controller.Memory_Data       760225      0.00%      0.00% (Unspecified)
board.cache_hierarchy.ruby_system.Directory_Controller.Memory_Ack       502280      0.00%      0.00% (Unspecified)
board.cache_hierarchy.ruby_system.Directory_Controller.CleanReplacement       253850      0.00%      0.00% (Unspecified)
board.cache_hierarchy.ruby_system.Directory_Controller.I.Fetch       760225      0.00%      0.00% (Unspecified)
board.cache_hierarchy.ruby_system.Directory_Controller.M.Data       502280      0.00%      0.00% (Unspecified)
board.cache_hierarchy.ruby_system.Directory_Controller.M.CleanReplacement       253850      0.00%      0.00% (Unspecified)
board.cache_hierarchy.ruby_system.Directory_Controller.IM.Memory_Data       760225      0.00%      0.00% (Unspecified)
board.cache_hierarchy.ruby_system.Directory_Controller.MI.Memory_Ack       502280      0.00%      0.00% (Unspecified)
board.cache_hierarchy.ruby_system.L1Cache_Controller.Load |    15628272     63.36%     63.36% |      603624      2.45%     65.81% |      607863      2.46%     68.28% |      605247      2.45%     70.73% |      609347      2.47%     73.20% |      614467      2.49%     75.69% |      610164      2.47%     78.17% |      607813      2.46%     80.63% |      607667      2.46%     83.09% |      604779      2.45%     85.55% |      600679      2.44%     87.98% |      598238      2.43%     90.41% |      592256      2.40%     92.81% |      592803      2.40%     95.21% |      590214      2.39%     97.60% |      590766      2.40%    100.00% (Unspecified)
board.cache_hierarchy.ruby_system.L1Cache_Controller.Load::total     24664199                       (Unspecified)
board.cache_hierarchy.ruby_system.L1Cache_Controller.Ifetch |     9348723     68.00%     68.00% |      292932      2.13%     70.13% |      299279      2.18%     72.30% |      295355      2.15%     74.45% |      301691      2.19%     76.65% |      309911      2.25%     78.90% |      303918      2.21%     81.11% |      300793      2.19%     83.30% |      301075      2.19%     85.49% |      297221      2.16%     87.65% |      291510      2.12%     89.77% |      288355      2.10%     91.87% |      279877      2.04%     93.90% |      281151      2.04%     95.95% |      277815      2.02%     97.97% |      279059      2.03%    100.00% (Unspecified)
board.cache_hierarchy.ruby_system.L1Cache_Controller.Ifetch::total     13748665                       (Unspecified)
board.cache_hierarchy.ruby_system.L1Cache_Controller.Store |     8833103     76.60%     76.60% |      179895      1.56%     78.16% |      179890      1.56%     79.72% |      179886      1.56%     81.28% |      179893      1.56%     82.84% |      179893      1.56%     84.40% |      179901      1.56%     85.96% |      179887      1.56%     87.52% |      179896      1.56%     89.08% |      179894      1.56%     90.64% |      179884      1.56%     92.20% |      179894      1.56%     93.76% |      179885      1.56%     95.32% |      179891      1.56%     96.88% |      179906      1.56%     98.44% |      179886      1.56%    100.00% (Unspecified)
board.cache_hierarchy.ruby_system.L1Cache_Controller.Store::total     11531484                       (Unspecified)
board.cache_hierarchy.ruby_system.L1Cache_Controller.Inv |       26363      6.90%      6.90% |       23625      6.18%     13.08% |       23758      6.21%     19.29% |       23722      6.21%     25.50% |       23751      6.21%     31.71% |       23945      6.26%     37.97% |       23956      6.27%     44.24% |       23874      6.25%     50.49% |       23730      6.21%     56.69% |       23700      6.20%     62.89% |       23751      6.21%     69.11% |       23742      6.21%     75.32% |       23540      6.16%     81.47% |       23483      6.14%     87.62% |       23624      6.18%     93.80% |       23714      6.20%    100.00% (Unspecified)
board.cache_hierarchy.ruby_system.L1Cache_Controller.Inv::total       382278                       (Unspecified)
board.cache_hierarchy.ruby_system.L1Cache_Controller.L1_Replacement |      403042     53.88%     53.88% |       22999      3.07%     56.96% |       22996      3.07%     60.03% |       22999      3.07%     63.11% |       22996      3.07%     66.18% |       22999      3.07%     69.25% |       22996      3.07%     72.33% |       22999      3.07%     75.40% |       22996      3.07%     78.48% |       22999      3.07%     81.55% |       22996      3.07%     84.63% |       22999      3.07%     87.70% |       22996      3.07%     90.78% |       22999      3.07%     93.85% |       23000      3.07%     96.93% |       22998      3.07%    100.00% (Unspecified)
board.cache_hierarchy.ruby_system.L1Cache_Controller.L1_Replacement::total       748009                       (Unspecified)
board.cache_hierarchy.ruby_system.L1Cache_Controller.Fwd_GETX |          64     48.85%     48.85% |           4      3.05%     51.91% |           5      3.82%     55.73% |           5      3.82%     59.54% |           5      3.82%     63.36% |           4      3.05%     66.41% |           5      3.82%     70.23% |           4      3.05%     73.28% |           5      3.82%     77.10% |           5      3.82%     80.92% |           5      3.82%     84.73% |           5      3.82%     88.55% |           5      3.82%     92.37% |           4      3.05%     95.42% |           4      3.05%     98.47% |           2      1.53%    100.00% (Unspecified)
board.cache_hierarchy.ruby_system.L1Cache_Controller.Fwd_GETX::total          131                       (Unspecified)
board.cache_hierarchy.ruby_system.L1Cache_Controller.Fwd_GETS |         159     87.36%     87.36% |          12      6.59%     93.96% |           2      1.10%     95.05% |           1      0.55%     95.60% |           1      0.55%     96.15% |           4      2.20%     98.35% |           0      0.00%     98.35% |           0      0.00%     98.35% |           0      0.00%     98.35% |           0      0.00%     98.35% |           0      0.00%     98.35% |           0      0.00%     98.35% |           0      0.00%     98.35% |           0      0.00%     98.35% |           2      1.10%     99.45% |           1      0.55%    100.00% (Unspecified)
board.cache_hierarchy.ruby_system.L1Cache_Controller.Fwd_GETS::total          182                       (Unspecified)
board.cache_hierarchy.ruby_system.L1Cache_Controller.Data |           1    100.00%    100.00% |           0      0.00%    100.00% |           0      0.00%    100.00% |           0      0.00%    100.00% |           0      0.00%    100.00% |           0      0.00%    100.00% |           0      0.00%    100.00% |           0      0.00%    100.00% |           0      0.00%    100.00% |           0      0.00%    100.00% |           0      0.00%    100.00% |           0      0.00%    100.00% |           0      0.00%    100.00% |           0      0.00%    100.00% |           0      0.00%    100.00% |           0      0.00%    100.00% (Unspecified)
board.cache_hierarchy.ruby_system.L1Cache_Controller.Data::total            1                       (Unspecified)
board.cache_hierarchy.ruby_system.L1Cache_Controller.Data_Exclusive |       17621      6.91%      6.91% |       15884      6.23%     13.14% |       15808      6.20%     19.34% |       15842      6.21%     25.55% |       15813      6.20%     31.75% |       15873      6.22%     37.98% |       15876      6.23%     44.20% |       15849      6.22%     50.42% |       15782      6.19%     56.61% |       15807      6.20%     62.80% |       15782      6.19%     68.99% |       15788      6.19%     75.18% |       15783      6.19%     81.37% |       15805      6.20%     87.57% |       15866      6.22%     93.79% |       15827      6.21%    100.00% (Unspecified)
board.cache_hierarchy.ruby_system.L1Cache_Controller.Data_Exclusive::total       255006                       (Unspecified)
board.cache_hierarchy.ruby_system.L1Cache_Controller.DataS_fromL1 |           1      0.55%      0.55% |          11      6.04%      6.59% |          21     11.54%     18.13% |          18      9.89%     28.02% |          10      5.49%     33.52% |          10      5.49%     39.01% |          13      7.14%     46.15% |           9      4.95%     51.10% |          10      5.49%     56.59% |          10      5.49%     62.09% |          10      5.49%     67.58% |          12      6.59%     74.18% |          11      6.04%     80.22% |          11      6.04%     86.26% |          13      7.14%     93.41% |          12      6.59%    100.00% (Unspecified)
board.cache_hierarchy.ruby_system.L1Cache_Controller.DataS_fromL1::total          182                       (Unspecified)
board.cache_hierarchy.ruby_system.L1Cache_Controller.Data_all_Acks |      387702     75.39%     75.39% |        8442      1.64%     77.03% |        8424      1.64%     78.67% |        8432      1.64%     80.31% |        8428      1.64%     81.94% |        8451      1.64%     83.59% |        8447      1.64%     85.23% |        8433      1.64%     86.87% |        8433      1.64%     88.51% |        8438      1.64%     90.15% |        8436      1.64%     91.79% |        8432      1.64%     93.43% |        8435      1.64%     95.07% |        8442      1.64%     96.71% |        8462      1.65%     98.36% |        8452      1.64%    100.00% (Unspecified)
board.cache_hierarchy.ruby_system.L1Cache_Controller.Data_all_Acks::total       514289                       (Unspecified)
board.cache_hierarchy.ruby_system.L1Cache_Controller.Ack |          22     26.83%     26.83% |           2      2.44%     29.27% |           2      2.44%     31.71% |           2      2.44%     34.15% |           2      2.44%     36.59% |           2      2.44%     39.02% |           2      2.44%     41.46% |           2      2.44%     43.90% |           2      2.44%     46.34% |           2      2.44%     48.78% |           2      2.44%     51.22% |           2      2.44%     53.66% |           2      2.44%     56.10% |           2      2.44%     58.54% |          17     20.73%     79.27% |          17     20.73%    100.00% (Unspecified)
board.cache_hierarchy.ruby_system.L1Cache_Controller.Ack::total           82                       (Unspecified)
board.cache_hierarchy.ruby_system.L1Cache_Controller.Ack_all |          16     33.33%     33.33% |           2      4.17%     37.50% |           2      4.17%     41.67% |           2      4.17%     45.83% |           2      4.17%     50.00% |           2      4.17%     54.17% |           2      4.17%     58.33% |           2      4.17%     62.50% |           2      4.17%     66.67% |           2      4.17%     70.83% |           2      4.17%     75.00% |           2      4.17%     79.17% |           2      4.17%     83.33% |           2      4.17%     87.50% |           3      6.25%     93.75% |           3      6.25%    100.00% (Unspecified)
board.cache_hierarchy.ruby_system.L1Cache_Controller.Ack_all::total           48                       (Unspecified)
board.cache_hierarchy.ruby_system.L1Cache_Controller.WB_Ack |      377736     98.77%     98.77% |         391      0.10%     98.88% |         307      0.08%     98.96% |         298      0.08%     99.03% |         339      0.09%     99.12% |         341      0.09%     99.21% |         284      0.07%     99.29% |         276      0.07%     99.36% |         361      0.09%     99.45% |         345      0.09%     99.54% |         242      0.06%     99.61% |         233      0.06%     99.67% |         297      0.08%     99.75% |         393      0.10%     99.85% |         331      0.09%     99.93% |         251      0.07%    100.00% (Unspecified)
board.cache_hierarchy.ruby_system.L1Cache_Controller.WB_Ack::total       382425                       (Unspecified)
board.cache_hierarchy.ruby_system.L1Cache_Controller.NP.Load |       17376      6.88%      6.88% |       15671      6.21%     13.09% |       15669      6.21%     19.30% |       15671      6.21%     25.51% |       15669      6.21%     31.71% |       15671      6.21%     37.92% |       15669      6.21%     44.13% |       15671      6.21%     50.34% |       15669      6.21%     56.55% |       15671      6.21%     62.75% |       15669      6.21%     68.96% |       15671      6.21%     75.17% |       15669      6.21%     81.38% |       15671      6.21%     87.58% |       15672      6.21%     93.79% |       15670      6.21%    100.00% (Unspecified)
board.cache_hierarchy.ruby_system.L1Cache_Controller.NP.Load::total       252429                       (Unspecified)
board.cache_hierarchy.ruby_system.L1Cache_Controller.NP.Ifetch |        2687     52.60%     52.60% |         160      3.13%     55.74% |         161      3.15%     58.89% |         161      3.15%     62.04% |         161      3.15%     65.19% |         161      3.15%     68.34% |         161      3.15%     71.50% |         161      3.15%     74.65% |         161      3.15%     77.80% |         161      3.15%     80.95% |         161      3.15%     84.10% |         162      3.17%     87.27% |         162      3.17%     90.45% |         162      3.17%     93.62% |         164      3.21%     96.83% |         162      3.17%    100.00% (Unspecified)
board.cache_hierarchy.ruby_system.L1Cache_Controller.NP.Ifetch::total         5108                       (Unspecified)
board.cache_hierarchy.ruby_system.L1Cache_Controller.NP.Store |      384003     76.56%     76.56% |        7840      1.56%     78.12% |        7839      1.56%     79.68% |        7840      1.56%     81.24% |        7839      1.56%     82.81% |        7840      1.56%     84.37% |        7839      1.56%     85.93% |        7840      1.56%     87.50% |        7839      1.56%     89.06% |        7840      1.56%     90.62% |        7839      1.56%     92.19% |        7840      1.56%     93.75% |        7839      1.56%     95.31% |        7840      1.56%     96.87% |        7840      1.56%     98.44% |        7840      1.56%    100.00% (Unspecified)
board.cache_hierarchy.ruby_system.L1Cache_Controller.NP.Store::total       501597                       (Unspecified)
board.cache_hierarchy.ruby_system.L1Cache_Controller.NP.Inv |        1240     99.52%     99.52% |           2      0.16%     99.68% |           1      0.08%     99.76% |           1      0.08%     99.84% |           0      0.00%     99.84% |           0      0.00%     99.84% |           0      0.00%     99.84% |           0      0.00%     99.84% |           0      0.00%     99.84% |           0      0.00%     99.84% |           0      0.00%     99.84% |           0      0.00%     99.84% |           0      0.00%     99.84% |           1      0.08%     99.92% |           1      0.08%    100.00% |           0      0.00%    100.00% (Unspecified)
board.cache_hierarchy.ruby_system.L1Cache_Controller.NP.Inv::total         1246                       (Unspecified)
board.cache_hierarchy.ruby_system.L1Cache_Controller.I.Load |         256      8.03%      8.03% |         243      7.62%     15.65% |         179      5.61%     21.26% |         212      6.65%     27.91% |         185      5.80%     33.71% |         240      7.53%     41.24% |         248      7.78%     49.01% |         218      6.84%     55.85% |         154      4.83%     60.68% |         177      5.55%     66.23% |         154      4.83%     71.06% |         159      4.99%     76.04% |         156      4.89%     80.93% |         176      5.52%     86.45% |         236      7.40%     93.85% |         196      6.15%    100.00% (Unspecified)
board.cache_hierarchy.ruby_system.L1Cache_Controller.I.Load::total         3189                       (Unspecified)
board.cache_hierarchy.ruby_system.L1Cache_Controller.I.Ifetch |         879     13.55%     13.55% |         374      5.77%     19.32% |         372      5.74%     25.06% |         374      5.77%     30.82% |         373      5.75%     36.58% |         371      5.72%     42.30% |         373      5.75%     48.05% |         373      5.75%     53.80% |         373      5.75%     59.55% |         373      5.75%     65.30% |         375      5.78%     71.09% |         375      5.78%     76.87% |         375      5.78%     82.65% |         375      5.78%     88.43% |         375      5.78%     94.22% |         375      5.78%    100.00% (Unspecified)
board.cache_hierarchy.ruby_system.L1Cache_Controller.I.Ifetch::total         6485                       (Unspecified)
board.cache_hierarchy.ruby_system.L1Cache_Controller.I.Store |         124     18.51%     18.51% |          49      7.31%     25.82% |          33      4.93%     30.75% |          34      5.07%     35.82% |          24      3.58%     39.40% |          51      7.61%     47.01% |          46      6.87%     53.88% |          28      4.18%     58.06% |          29      4.33%     62.39% |          33      4.93%     67.31% |          30      4.48%     71.79% |          25      3.73%     75.52% |          28      4.18%     79.70% |          34      5.07%     84.78% |          54      8.06%     92.84% |          48      7.16%    100.00% (Unspecified)
board.cache_hierarchy.ruby_system.L1Cache_Controller.I.Store::total          670                       (Unspecified)
board.cache_hierarchy.ruby_system.L1Cache_Controller.I.L1_Replacement |       23703      6.51%      6.51% |       22606      6.21%     12.72% |       22688      6.23%     18.96% |       22700      6.24%     25.19% |       22657      6.22%     31.42% |       22658      6.23%     37.64% |       22712      6.24%     43.88% |       22723      6.24%     50.13% |       22635      6.22%     56.35% |       22654      6.22%     62.57% |       22754      6.25%     68.82% |       22766      6.25%     75.08% |       22699      6.24%     81.31% |       22605      6.21%     87.52% |       22668      6.23%     93.75% |       22747      6.25%    100.00% (Unspecified)
board.cache_hierarchy.ruby_system.L1Cache_Controller.I.L1_Replacement::total       363975                       (Unspecified)
board.cache_hierarchy.ruby_system.L1Cache_Controller.S.Load |       10302      1.71%      1.71% |       40918      6.79%      8.50% |       45164      7.50%     16.00% |       42550      7.06%     23.06% |       46647      7.74%     30.81% |       48406      8.04%     38.84% |       47474      7.88%     46.73% |       45104      7.49%     54.21% |       44964      7.46%     61.68% |       42080      6.99%     68.66% |       37980      6.31%     74.97% |       35536      5.90%     80.87% |       29555      4.91%     85.77% |       30095      5.00%     90.77% |       27533      4.57%     95.34% |       28060      4.66%    100.00% (Unspecified)
board.cache_hierarchy.ruby_system.L1Cache_Controller.S.Load::total       602368                       (Unspecified)
board.cache_hierarchy.ruby_system.L1Cache_Controller.S.Ifetch |     9345157     68.03%     68.03% |      292398      2.13%     70.16% |      298746      2.17%     72.33% |      294820      2.15%     74.48% |      301157      2.19%     76.67% |      309379      2.25%     78.92% |      303384      2.21%     81.13% |      300259      2.19%     83.32% |      300541      2.19%     85.50% |      296687      2.16%     87.66% |      290974      2.12%     89.78% |      287818      2.10%     91.88% |      279340      2.03%     93.91% |      280614      2.04%     95.95% |      277276      2.02%     97.97% |      278522      2.03%    100.00% (Unspecified)
board.cache_hierarchy.ruby_system.L1Cache_Controller.S.Ifetch::total     13737072                       (Unspecified)
board.cache_hierarchy.ruby_system.L1Cache_Controller.S.Store |          15     31.91%     31.91% |           2      4.26%     36.17% |           2      4.26%     40.43% |           2      4.26%     44.68% |           2      4.26%     48.94% |           2      4.26%     53.19% |           2      4.26%     57.45% |           2      4.26%     61.70% |           2      4.26%     65.96% |           2      4.26%     70.21% |           2      4.26%     74.47% |           2      4.26%     78.72% |           2      4.26%     82.98% |           2      4.26%     87.23% |           3      6.38%     93.62% |           3      6.38%    100.00% (Unspecified)
board.cache_hierarchy.ruby_system.L1Cache_Controller.S.Store::total           47                       (Unspecified)
board.cache_hierarchy.ruby_system.L1Cache_Controller.S.Inv |        1652     16.75%     16.75% |         545      5.52%     22.27% |         546      5.53%     27.81% |         547      5.54%     33.35% |         548      5.55%     38.91% |         548      5.55%     44.46% |         547      5.54%     50.01% |         546      5.53%     55.54% |         547      5.54%     61.08% |         547      5.54%     66.63% |         548      5.55%     72.18% |         550      5.58%     77.76% |         550      5.58%     83.34% |         549      5.57%     88.90% |         548      5.55%     94.46% |         547      5.54%    100.00% (Unspecified)
board.cache_hierarchy.ruby_system.L1Cache_Controller.S.Inv::total         9865                       (Unspecified)
board.cache_hierarchy.ruby_system.L1Cache_Controller.S.L1_Replacement |        1603     99.63%     99.63% |           2      0.12%     99.75% |           1      0.06%     99.81% |           1      0.06%     99.88% |           0      0.00%     99.88% |           0      0.00%     99.88% |           0      0.00%     99.88% |           0      0.00%     99.88% |           0      0.00%     99.88% |           0      0.00%     99.88% |           0      0.00%     99.88% |           0      0.00%     99.88% |           0      0.00%     99.88% |           1      0.06%     99.94% |           1      0.06%    100.00% |           0      0.00%    100.00% (Unspecified)
board.cache_hierarchy.ruby_system.L1Cache_Controller.S.L1_Replacement::total         1609                       (Unspecified)
board.cache_hierarchy.ruby_system.L1Cache_Controller.E.Load |     9147016     67.35%     67.35% |      295824      2.18%     69.53% |      294892      2.17%     71.70% |      295569      2.18%     73.88% |      295119      2.17%     76.05% |      299096      2.20%     78.26% |      295763      2.18%     80.43% |      295531      2.18%     82.61% |      294873      2.17%     84.78% |      294867      2.17%     86.95% |      295836      2.18%     89.13% |      294739      2.17%     91.30% |      295158      2.17%     93.47% |      295127      2.17%     95.65% |      295695      2.18%     97.83% |      295352      2.17%    100.00% (Unspecified)
board.cache_hierarchy.ruby_system.L1Cache_Controller.E.Load::total     13580457                       (Unspecified)
board.cache_hierarchy.ruby_system.L1Cache_Controller.E.Store |         194     14.01%     14.01% |          96      6.93%     20.94% |          72      5.20%     26.14% |          89      6.43%     32.56% |          80      5.78%     38.34% |          94      6.79%     45.13% |         100      7.22%     52.35% |          95      6.86%     59.21% |          62      4.48%     63.68% |          73      5.27%     68.95% |          62      4.48%     73.43% |          67      4.84%     78.27% |          64      4.62%     82.89% |          71      5.13%     88.01% |          91      6.57%     94.58% |          75      5.42%    100.00% (Unspecified)
board.cache_hierarchy.ruby_system.L1Cache_Controller.E.Store::total         1385                       (Unspecified)
board.cache_hierarchy.ruby_system.L1Cache_Controller.E.Inv |       15314      6.26%      6.26% |       15191      6.21%     12.46% |       15336      6.27%     18.73% |       15320      6.26%     24.99% |       15300      6.25%     31.24% |       15420      6.30%     37.54% |       15461      6.32%     43.86% |       15388      6.29%     50.14% |       15275      6.24%     56.39% |       15260      6.23%     62.62% |       15344      6.27%     68.89% |       15330      6.26%     75.15% |       15187      6.21%     81.36% |       15105      6.17%     87.53% |       15231      6.22%     93.75% |       15290      6.25%    100.00% (Unspecified)
board.cache_hierarchy.ruby_system.L1Cache_Controller.E.Inv::total       244752                       (Unspecified)
board.cache_hierarchy.ruby_system.L1Cache_Controller.E.L1_Replacement |        1899     28.87%     28.87% |         391      5.94%     34.81% |         306      4.65%     39.46% |         297      4.52%     43.98% |         338      5.14%     49.12% |         341      5.18%     54.30% |         283      4.30%     58.60% |         275      4.18%     62.79% |         361      5.49%     68.27% |         344      5.23%     73.50% |         242      3.68%     77.18% |         232      3.53%     80.71% |         296      4.50%     85.21% |         393      5.97%     91.18% |         329      5.00%     96.18% |         251      3.82%    100.00% (Unspecified)
board.cache_hierarchy.ruby_system.L1Cache_Controller.E.L1_Replacement::total         6578                       (Unspecified)
board.cache_hierarchy.ruby_system.L1Cache_Controller.E.Fwd_GETX |           1    100.00%    100.00% |           0      0.00%    100.00% |           0      0.00%    100.00% |           0      0.00%    100.00% |           0      0.00%    100.00% |           0      0.00%    100.00% |           0      0.00%    100.00% |           0      0.00%    100.00% |           0      0.00%    100.00% |           0      0.00%    100.00% |           0      0.00%    100.00% |           0      0.00%    100.00% |           0      0.00%    100.00% |           0      0.00%    100.00% |           0      0.00%    100.00% |           0      0.00%    100.00% (Unspecified)
board.cache_hierarchy.ruby_system.L1Cache_Controller.E.Fwd_GETX::total            1                       (Unspecified)
board.cache_hierarchy.ruby_system.L1Cache_Controller.E.Fwd_GETS |           5     20.00%     20.00% |          12     48.00%     68.00% |           2      8.00%     76.00% |           1      4.00%     80.00% |           1      4.00%     84.00% |           4     16.00%    100.00% |           0      0.00%    100.00% |           0      0.00%    100.00% |           0      0.00%    100.00% |           0      0.00%    100.00% |           0      0.00%    100.00% |           0      0.00%    100.00% |           0      0.00%    100.00% |           0      0.00%    100.00% |           0      0.00%    100.00% |           0      0.00%    100.00% (Unspecified)
board.cache_hierarchy.ruby_system.L1Cache_Controller.E.Fwd_GETS::total           25                       (Unspecified)
board.cache_hierarchy.ruby_system.L1Cache_Controller.M.Load |     6453322     63.11%     63.11% |      250968      2.45%     65.56% |      251959      2.46%     68.03% |      251245      2.46%     70.48% |      251727      2.46%     72.95% |      251054      2.46%     75.40% |      251010      2.45%     77.86% |      251289      2.46%     80.31% |      252007      2.46%     82.78% |      251984      2.46%     85.24% |      251040      2.45%     87.70% |      252133      2.47%     90.16% |      251718      2.46%     92.62% |      251734      2.46%     95.09% |      251078      2.46%     97.54% |      251488      2.46%    100.00% (Unspecified)
board.cache_hierarchy.ruby_system.L1Cache_Controller.M.Load::total     10225756                       (Unspecified)
board.cache_hierarchy.ruby_system.L1Cache_Controller.M.Store |     8448767     76.61%     76.61% |      171908      1.56%     78.17% |      171944      1.56%     79.73% |      171921      1.56%     81.29% |      171948      1.56%     82.85% |      171906      1.56%     84.41% |      171914      1.56%     85.97% |      171922      1.56%     87.53% |      171964      1.56%     89.09% |      171946      1.56%     90.65% |      171951      1.56%     92.20% |      171960      1.56%     93.76% |      171952      1.56%     95.32% |      171944      1.56%     96.88% |      171918      1.56%     98.44% |      171920      1.56%    100.00% (Unspecified)
board.cache_hierarchy.ruby_system.L1Cache_Controller.M.Store::total     11027785                       (Unspecified)
board.cache_hierarchy.ruby_system.L1Cache_Controller.M.Inv |        8157      6.45%      6.45% |        7885      6.24%     12.69% |        7875      6.23%     18.92% |        7853      6.21%     25.13% |        7902      6.25%     31.38% |        7977      6.31%     37.70% |        7948      6.29%     43.98% |        7940      6.28%     50.26% |        7906      6.25%     56.52% |        7893      6.24%     62.76% |        7858      6.22%     68.98% |        7862      6.22%     75.20% |        7802      6.17%     81.37% |        7826      6.19%     87.56% |        7844      6.21%     93.77% |        7877      6.23%    100.00% (Unspecified)
board.cache_hierarchy.ruby_system.L1Cache_Controller.M.Inv::total       126405                       (Unspecified)
board.cache_hierarchy.ruby_system.L1Cache_Controller.M.L1_Replacement |      375837    100.00%    100.00% |           0      0.00%    100.00% |           1      0.00%    100.00% |           1      0.00%    100.00% |           1      0.00%    100.00% |           0      0.00%    100.00% |           1      0.00%    100.00% |           1      0.00%    100.00% |           0      0.00%    100.00% |           1      0.00%    100.00% |           0      0.00%    100.00% |           1      0.00%    100.00% |           1      0.00%    100.00% |           0      0.00%    100.00% |           2      0.00%    100.00% |           0      0.00%    100.00% (Unspecified)
board.cache_hierarchy.ruby_system.L1Cache_Controller.M.L1_Replacement::total       375847                       (Unspecified)
board.cache_hierarchy.ruby_system.L1Cache_Controller.M.Fwd_GETX |          63     48.46%     48.46% |           4      3.08%     51.54% |           5      3.85%     55.38% |           5      3.85%     59.23% |           5      3.85%     63.08% |           4      3.08%     66.15% |           5      3.85%     70.00% |           4      3.08%     73.08% |           5      3.85%     76.92% |           5      3.85%     80.77% |           5      3.85%     84.62% |           5      3.85%     88.46% |           5      3.85%     92.31% |           4      3.08%     95.38% |           4      3.08%     98.46% |           2      1.54%    100.00% (Unspecified)
board.cache_hierarchy.ruby_system.L1Cache_Controller.M.Fwd_GETX::total          130                       (Unspecified)
board.cache_hierarchy.ruby_system.L1Cache_Controller.M.Fwd_GETS |         154     98.09%     98.09% |           0      0.00%     98.09% |           0      0.00%     98.09% |           0      0.00%     98.09% |           0      0.00%     98.09% |           0      0.00%     98.09% |           0      0.00%     98.09% |           0      0.00%     98.09% |           0      0.00%     98.09% |           0      0.00%     98.09% |           0      0.00%     98.09% |           0      0.00%     98.09% |           0      0.00%     98.09% |           0      0.00%     98.09% |           2      1.27%     99.36% |           1      0.64%    100.00% (Unspecified)
board.cache_hierarchy.ruby_system.L1Cache_Controller.M.Fwd_GETS::total          157                       (Unspecified)
board.cache_hierarchy.ruby_system.L1Cache_Controller.IS.Data_Exclusive |       17621      6.91%      6.91% |       15884      6.23%     13.14% |       15808      6.20%     19.34% |       15842      6.21%     25.55% |       15813      6.20%     31.75% |       15873      6.22%     37.98% |       15876      6.23%     44.20% |       15849      6.22%     50.42% |       15782      6.19%     56.61% |       15807      6.20%     62.80% |       15782      6.19%     68.99% |       15788      6.19%     75.18% |       15783      6.19%     81.37% |       15805      6.20%     87.57% |       15866      6.22%     93.79% |       15827      6.21%    100.00% (Unspecified)
board.cache_hierarchy.ruby_system.L1Cache_Controller.IS.Data_Exclusive::total       255006                       (Unspecified)
board.cache_hierarchy.ruby_system.L1Cache_Controller.IS.DataS_fromL1 |           1      0.55%      0.55% |          11      6.04%      6.59% |          21     11.54%     18.13% |          18      9.89%     28.02% |          10      5.49%     33.52% |          10      5.49%     39.01% |          13      7.14%     46.15% |           9      4.95%     51.10% |          10      5.49%     56.59% |          10      5.49%     62.09% |          10      5.49%     67.58% |          12      6.59%     74.18% |          11      6.04%     80.22% |          11      6.04%     86.26% |          13      7.14%     93.41% |          12      6.59%    100.00% (Unspecified)
board.cache_hierarchy.ruby_system.L1Cache_Controller.IS.DataS_fromL1::total          182                       (Unspecified)
board.cache_hierarchy.ruby_system.L1Cache_Controller.IS.Data_all_Acks |        3576     29.74%     29.74% |         553      4.60%     34.34% |         552      4.59%     38.93% |         558      4.64%     43.57% |         565      4.70%     48.27% |         560      4.66%     52.93% |         562      4.67%     57.61% |         565      4.70%     62.31% |         565      4.70%     67.00% |         565      4.70%     71.70% |         567      4.72%     76.42% |         567      4.72%     81.14% |         568      4.72%     85.86% |         568      4.72%     90.58% |         568      4.72%     95.31% |         564      4.69%    100.00% (Unspecified)
board.cache_hierarchy.ruby_system.L1Cache_Controller.IS.Data_all_Acks::total        12023                       (Unspecified)
board.cache_hierarchy.ruby_system.L1Cache_Controller.IM.Data |           1    100.00%    100.00% |           0      0.00%    100.00% |           0      0.00%    100.00% |           0      0.00%    100.00% |           0      0.00%    100.00% |           0      0.00%    100.00% |           0      0.00%    100.00% |           0      0.00%    100.00% |           0      0.00%    100.00% |           0      0.00%    100.00% |           0      0.00%    100.00% |           0      0.00%    100.00% |           0      0.00%    100.00% |           0      0.00%    100.00% |           0      0.00%    100.00% |           0      0.00%    100.00% (Unspecified)
board.cache_hierarchy.ruby_system.L1Cache_Controller.IM.Data::total            1                       (Unspecified)
board.cache_hierarchy.ruby_system.L1Cache_Controller.IM.Data_all_Acks |      384126     76.48%     76.48% |        7889      1.57%     78.05% |        7872      1.57%     79.62% |        7874      1.57%     81.18% |        7863      1.57%     82.75% |        7891      1.57%     84.32% |        7885      1.57%     85.89% |        7868      1.57%     87.46% |        7868      1.57%     89.02% |        7873      1.57%     90.59% |        7869      1.57%     92.16% |        7865      1.57%     93.72% |        7867      1.57%     95.29% |        7874      1.57%     96.86% |        7894      1.57%     98.43% |        7888      1.57%    100.00% (Unspecified)
board.cache_hierarchy.ruby_system.L1Cache_Controller.IM.Data_all_Acks::total       502266                       (Unspecified)
board.cache_hierarchy.ruby_system.L1Cache_Controller.SM.Ack |          22     26.83%     26.83% |           2      2.44%     29.27% |           2      2.44%     31.71% |           2      2.44%     34.15% |           2      2.44%     36.59% |           2      2.44%     39.02% |           2      2.44%     41.46% |           2      2.44%     43.90% |           2      2.44%     46.34% |           2      2.44%     48.78% |           2      2.44%     51.22% |           2      2.44%     53.66% |           2      2.44%     56.10% |           2      2.44%     58.54% |          17     20.73%     79.27% |          17     20.73%    100.00% (Unspecified)
board.cache_hierarchy.ruby_system.L1Cache_Controller.SM.Ack::total           82                       (Unspecified)
board.cache_hierarchy.ruby_system.L1Cache_Controller.SM.Ack_all |          16     33.33%     33.33% |           2      4.17%     37.50% |           2      4.17%     41.67% |           2      4.17%     45.83% |           2      4.17%     50.00% |           2      4.17%     54.17% |           2      4.17%     58.33% |           2      4.17%     62.50% |           2      4.17%     66.67% |           2      4.17%     70.83% |           2      4.17%     75.00% |           2      4.17%     79.17% |           2      4.17%     83.33% |           2      4.17%     87.50% |           3      6.25%     93.75% |           3      6.25%    100.00% (Unspecified)
board.cache_hierarchy.ruby_system.L1Cache_Controller.SM.Ack_all::total           48                       (Unspecified)
board.cache_hierarchy.ruby_system.L1Cache_Controller.M_I.Inv |           0      0.00%      0.00% |           2     20.00%     20.00% |           0      0.00%     20.00% |           1     10.00%     30.00% |           1     10.00%     40.00% |           0      0.00%     40.00% |           0      0.00%     40.00% |           0      0.00%     40.00% |           2     20.00%     60.00% |           0      0.00%     60.00% |           1     10.00%     70.00% |           0      0.00%     70.00% |           1     10.00%     80.00% |           2     20.00%    100.00% |           0      0.00%    100.00% |           0      0.00%    100.00% (Unspecified)
board.cache_hierarchy.ruby_system.L1Cache_Controller.M_I.Inv::total           10                       (Unspecified)
board.cache_hierarchy.ruby_system.L1Cache_Controller.M_I.WB_Ack |      377736     98.78%     98.78% |         389      0.10%     98.88% |         307      0.08%     98.96% |         297      0.08%     99.04% |         338      0.09%     99.12% |         341      0.09%     99.21% |         284      0.07%     99.29% |         276      0.07%     99.36% |         359      0.09%     99.45% |         345      0.09%     99.54% |         241      0.06%     99.61% |         233      0.06%     99.67% |         296      0.08%     99.75% |         391      0.10%     99.85% |         331      0.09%     99.93% |         251      0.07%    100.00% (Unspecified)
board.cache_hierarchy.ruby_system.L1Cache_Controller.M_I.WB_Ack::total       382415                       (Unspecified)
board.cache_hierarchy.ruby_system.L1Cache_Controller.SINK_WB_ACK.WB_Ack |           0      0.00%      0.00% |           2     20.00%     20.00% |           0      0.00%     20.00% |           1     10.00%     30.00% |           1     10.00%     40.00% |           0      0.00%     40.00% |           0      0.00%     40.00% |           0      0.00%     40.00% |           2     20.00%     60.00% |           0      0.00%     60.00% |           1     10.00%     70.00% |           0      0.00%     70.00% |           1     10.00%     80.00% |           2     20.00%    100.00% |           0      0.00%    100.00% |           0      0.00%    100.00% (Unspecified)
board.cache_hierarchy.ruby_system.L1Cache_Controller.SINK_WB_ACK.WB_Ack::total           10                       (Unspecified)
board.cache_hierarchy.ruby_system.L2Cache_Controller.L1_GET_INSTR        12562      0.00%      0.00% (Unspecified)
board.cache_hierarchy.ruby_system.L2Cache_Controller.L1_GETS       256562      0.00%      0.00% (Unspecified)
board.cache_hierarchy.ruby_system.L2Cache_Controller.L1_GETX       502581      0.00%      0.00% (Unspecified)
board.cache_hierarchy.ruby_system.L2Cache_Controller.L1_UPGRADE           47      0.00%      0.00% (Unspecified)
board.cache_hierarchy.ruby_system.L2Cache_Controller.L1_PUTX       382415      0.00%      0.00% (Unspecified)
board.cache_hierarchy.ruby_system.L2Cache_Controller.L1_PUTX_old           20      0.00%      0.00% (Unspecified)
board.cache_hierarchy.ruby_system.L2Cache_Controller.L2_Replacement       375915      0.00%      0.00% (Unspecified)
board.cache_hierarchy.ruby_system.L2Cache_Controller.L2_Replacement_clean       380215      0.00%      0.00% (Unspecified)
board.cache_hierarchy.ruby_system.L2Cache_Controller.Mem_Data       760225      0.00%      0.00% (Unspecified)
board.cache_hierarchy.ruby_system.L2Cache_Controller.Mem_Ack       756130      0.00%      0.00% (Unspecified)
board.cache_hierarchy.ruby_system.L2Cache_Controller.WB_Data       126562      0.00%      0.00% (Unspecified)
board.cache_hierarchy.ruby_system.L2Cache_Controller.WB_Data_clean           35      0.00%      0.00% (Unspecified)
board.cache_hierarchy.ruby_system.L2Cache_Controller.Ack         8025      0.00%      0.00% (Unspecified)
board.cache_hierarchy.ruby_system.L2Cache_Controller.Ack_all       247755      0.00%      0.00% (Unspecified)
board.cache_hierarchy.ruby_system.L2Cache_Controller.Unblock          182      0.00%      0.00% (Unspecified)
board.cache_hierarchy.ruby_system.L2Cache_Controller.Exclusive_Unblock       757320      0.00%      0.00% (Unspecified)
board.cache_hierarchy.ruby_system.L2Cache_Controller.NP.L1_GET_INSTR         3495      0.00%      0.00% (Unspecified)
board.cache_hierarchy.ruby_system.L2Cache_Controller.NP.L1_GETS       254641      0.00%      0.00% (Unspecified)
board.cache_hierarchy.ruby_system.L2Cache_Controller.NP.L1_GETX       502089      0.00%      0.00% (Unspecified)
board.cache_hierarchy.ruby_system.L2Cache_Controller.NP.L1_PUTX_old           10      0.00%      0.00% (Unspecified)
board.cache_hierarchy.ruby_system.L2Cache_Controller.SS.L1_GET_INSTR         3878      0.00%      0.00% (Unspecified)
board.cache_hierarchy.ruby_system.L2Cache_Controller.SS.L1_GETS          370      0.00%      0.00% (Unspecified)
board.cache_hierarchy.ruby_system.L2Cache_Controller.SS.L1_GETX            2      0.00%      0.00% (Unspecified)
board.cache_hierarchy.ruby_system.L2Cache_Controller.SS.L1_UPGRADE           47      0.00%      0.00% (Unspecified)
board.cache_hierarchy.ruby_system.L2Cache_Controller.SS.L2_Replacement          110      0.00%      0.00% (Unspecified)
board.cache_hierarchy.ruby_system.L2Cache_Controller.SS.L2_Replacement_clean         2893      0.00%      0.00% (Unspecified)
board.cache_hierarchy.ruby_system.L2Cache_Controller.M.L1_GET_INSTR            1      0.00%      0.00% (Unspecified)
board.cache_hierarchy.ruby_system.L2Cache_Controller.M.L1_GETS          370      0.00%      0.00% (Unspecified)
board.cache_hierarchy.ruby_system.L2Cache_Controller.M.L1_GETX           45      0.00%      0.00% (Unspecified)
board.cache_hierarchy.ruby_system.L2Cache_Controller.M.L2_Replacement       375764      0.00%      0.00% (Unspecified)
board.cache_hierarchy.ruby_system.L2Cache_Controller.M.L2_Replacement_clean         6196      0.00%      0.00% (Unspecified)
board.cache_hierarchy.ruby_system.L2Cache_Controller.MT.L1_GETS          182      0.00%      0.00% (Unspecified)
board.cache_hierarchy.ruby_system.L2Cache_Controller.MT.L1_GETX          131      0.00%      0.00% (Unspecified)
board.cache_hierarchy.ruby_system.L2Cache_Controller.MT.L1_PUTX       382415      0.00%      0.00% (Unspecified)
board.cache_hierarchy.ruby_system.L2Cache_Controller.MT.L2_Replacement           41      0.00%      0.00% (Unspecified)
board.cache_hierarchy.ruby_system.L2Cache_Controller.MT.L2_Replacement_clean       371126      0.00%      0.00% (Unspecified)
board.cache_hierarchy.ruby_system.L2Cache_Controller.M_I.L1_GET_INSTR          964      0.00%      0.00% (Unspecified)
board.cache_hierarchy.ruby_system.L2Cache_Controller.M_I.L1_GETS          868      0.00%      0.00% (Unspecified)
board.cache_hierarchy.ruby_system.L2Cache_Controller.M_I.L1_GETX          205      0.00%      0.00% (Unspecified)
board.cache_hierarchy.ruby_system.L2Cache_Controller.M_I.Mem_Ack       756130      0.00%      0.00% (Unspecified)
board.cache_hierarchy.ruby_system.L2Cache_Controller.MT_I.WB_Data           40      0.00%      0.00% (Unspecified)
board.cache_hierarchy.ruby_system.L2Cache_Controller.MT_I.Ack_all            1      0.00%      0.00% (Unspecified)
board.cache_hierarchy.ruby_system.L2Cache_Controller.MCT_I.L1_PUTX_old           10      0.00%      0.00% (Unspecified)
board.cache_hierarchy.ruby_system.L2Cache_Controller.MCT_I.WB_Data       126365      0.00%      0.00% (Unspecified)
board.cache_hierarchy.ruby_system.L2Cache_Controller.MCT_I.WB_Data_clean           10      0.00%      0.00% (Unspecified)
board.cache_hierarchy.ruby_system.L2Cache_Controller.MCT_I.Ack_all       244751      0.00%      0.00% (Unspecified)
board.cache_hierarchy.ruby_system.L2Cache_Controller.I_I.L1_GET_INSTR            5      0.00%      0.00% (Unspecified)
board.cache_hierarchy.ruby_system.L2Cache_Controller.I_I.Ack         7833      0.00%      0.00% (Unspecified)
board.cache_hierarchy.ruby_system.L2Cache_Controller.I_I.Ack_all         2893      0.00%      0.00% (Unspecified)
board.cache_hierarchy.ruby_system.L2Cache_Controller.S_I.Ack          192      0.00%      0.00% (Unspecified)
board.cache_hierarchy.ruby_system.L2Cache_Controller.S_I.Ack_all          110      0.00%      0.00% (Unspecified)
board.cache_hierarchy.ruby_system.L2Cache_Controller.ISS.L1_GETS            5      0.00%      0.00% (Unspecified)
board.cache_hierarchy.ruby_system.L2Cache_Controller.ISS.Mem_Data       254636      0.00%      0.00% (Unspecified)
board.cache_hierarchy.ruby_system.L2Cache_Controller.IS.L1_GET_INSTR         4219      0.00%      0.00% (Unspecified)
board.cache_hierarchy.ruby_system.L2Cache_Controller.IS.L1_GETS           50      0.00%      0.00% (Unspecified)
board.cache_hierarchy.ruby_system.L2Cache_Controller.IS.Mem_Data         3500      0.00%      0.00% (Unspecified)
board.cache_hierarchy.ruby_system.L2Cache_Controller.IM.L1_GETX           14      0.00%      0.00% (Unspecified)
board.cache_hierarchy.ruby_system.L2Cache_Controller.IM.Mem_Data       502089      0.00%      0.00% (Unspecified)
board.cache_hierarchy.ruby_system.L2Cache_Controller.SS_MB.L1_GETS           20      0.00%      0.00% (Unspecified)
board.cache_hierarchy.ruby_system.L2Cache_Controller.SS_MB.Exclusive_Unblock           49      0.00%      0.00% (Unspecified)
board.cache_hierarchy.ruby_system.L2Cache_Controller.MT_MB.L1_GETS            2      0.00%      0.00% (Unspecified)
board.cache_hierarchy.ruby_system.L2Cache_Controller.MT_MB.L1_GETX           95      0.00%      0.00% (Unspecified)
board.cache_hierarchy.ruby_system.L2Cache_Controller.MT_MB.Exclusive_Unblock       757271      0.00%      0.00% (Unspecified)
board.cache_hierarchy.ruby_system.L2Cache_Controller.MT_IIB.L1_GETS           53      0.00%      0.00% (Unspecified)
board.cache_hierarchy.ruby_system.L2Cache_Controller.MT_IIB.WB_Data            3      0.00%      0.00% (Unspecified)
board.cache_hierarchy.ruby_system.L2Cache_Controller.MT_IIB.Unblock          179      0.00%      0.00% (Unspecified)
board.cache_hierarchy.ruby_system.L2Cache_Controller.MT_IB.L1_GETS            1      0.00%      0.00% (Unspecified)
board.cache_hierarchy.ruby_system.L2Cache_Controller.MT_IB.WB_Data          154      0.00%      0.00% (Unspecified)
board.cache_hierarchy.ruby_system.L2Cache_Controller.MT_IB.WB_Data_clean           25      0.00%      0.00% (Unspecified)
board.cache_hierarchy.ruby_system.L2Cache_Controller.MT_SB.Unblock            3      0.00%      0.00% (Unspecified)
board.cache_hierarchy.ruby_system.RequestType.LD.latency_hist_seqr::bucket_size          256                       (Unspecified)
board.cache_hierarchy.ruby_system.RequestType.LD.latency_hist_seqr::max_bucket         2559                       (Unspecified)
board.cache_hierarchy.ruby_system.RequestType.LD.latency_hist_seqr::samples     24664199                       (Unspecified)
board.cache_hierarchy.ruby_system.RequestType.LD.latency_hist_seqr::mean     5.250647                       (Unspecified)
board.cache_hierarchy.ruby_system.RequestType.LD.latency_hist_seqr::gmean     1.063777                       (Unspecified)
board.cache_hierarchy.ruby_system.RequestType.LD.latency_hist_seqr::stdev    44.481764                       (Unspecified)
board.cache_hierarchy.ruby_system.RequestType.LD.latency_hist_seqr |    24411965     98.98%     98.98% |      209703      0.85%     99.83% |       36124      0.15%     99.97% |        1933      0.01%     99.98% |        3028      0.01%     99.99% |        1338      0.01%    100.00% |         108      0.00%    100.00% |           0      0.00%    100.00% |           0      0.00%    100.00% |           0      0.00%    100.00% (Unspecified)
board.cache_hierarchy.ruby_system.RequestType.LD.latency_hist_seqr::total     24664199                       (Unspecified)
board.cache_hierarchy.ruby_system.RequestType.LD.hit_latency_hist_seqr::bucket_size            1                       (Unspecified)
board.cache_hierarchy.ruby_system.RequestType.LD.hit_latency_hist_seqr::max_bucket            9                       (Unspecified)
board.cache_hierarchy.ruby_system.RequestType.LD.hit_latency_hist_seqr::samples     24408581                       (Unspecified)
board.cache_hierarchy.ruby_system.RequestType.LD.hit_latency_hist_seqr::mean            1                       (Unspecified)
board.cache_hierarchy.ruby_system.RequestType.LD.hit_latency_hist_seqr::gmean            1                       (Unspecified)
board.cache_hierarchy.ruby_system.RequestType.LD.hit_latency_hist_seqr |           0      0.00%      0.00% |    24408581    100.00%    100.00% |           0      0.00%    100.00% |           0      0.00%    100.00% |           0      0.00%    100.00% |           0      0.00%    100.00% |           0      0.00%    100.00% |           0      0.00%    100.00% |           0      0.00%    100.00% |           0      0.00%    100.00% (Unspecified)
board.cache_hierarchy.ruby_system.RequestType.LD.hit_latency_hist_seqr::total     24408581                       (Unspecified)
board.cache_hierarchy.ruby_system.RequestType.LD.miss_latency_hist_seqr::bucket_size          256                       (Unspecified)
board.cache_hierarchy.ruby_system.RequestType.LD.miss_latency_hist_seqr::max_bucket         2559                       (Unspecified)
board.cache_hierarchy.ruby_system.RequestType.LD.miss_latency_hist_seqr::samples       255618                       (Unspecified)
board.cache_hierarchy.ruby_system.RequestType.LD.miss_latency_hist_seqr::mean   411.138562                       (Unspecified)
board.cache_hierarchy.ruby_system.RequestType.LD.miss_latency_hist_seqr::gmean   389.727013                       (Unspecified)
board.cache_hierarchy.ruby_system.RequestType.LD.miss_latency_hist_seqr::stdev   156.347677                       (Unspecified)
board.cache_hierarchy.ruby_system.RequestType.LD.miss_latency_hist_seqr |        3384      1.32%      1.32% |      209703     82.04%     83.36% |       36124     14.13%     97.49% |        1933      0.76%     98.25% |        3028      1.18%     99.43% |        1338      0.52%     99.96% |         108      0.04%    100.00% |           0      0.00%    100.00% |           0      0.00%    100.00% |           0      0.00%    100.00% (Unspecified)
board.cache_hierarchy.ruby_system.RequestType.LD.miss_latency_hist_seqr::total       255618                       (Unspecified)
board.cache_hierarchy.ruby_system.RequestType.ST.latency_hist_seqr::bucket_size          256                       (Unspecified)
board.cache_hierarchy.ruby_system.RequestType.ST.latency_hist_seqr::max_bucket         2559                       (Unspecified)
board.cache_hierarchy.ruby_system.RequestType.ST.latency_hist_seqr::samples      7528556                       (Unspecified)
board.cache_hierarchy.ruby_system.RequestType.ST.latency_hist_seqr::mean    20.212476                       (Unspecified)
board.cache_hierarchy.ruby_system.RequestType.ST.latency_hist_seqr::gmean     1.450063                       (Unspecified)
board.cache_hierarchy.ruby_system.RequestType.ST.latency_hist_seqr::stdev    82.434806                       (Unspecified)
board.cache_hierarchy.ruby_system.RequestType.ST.latency_hist_seqr |     7373293     97.94%     97.94% |      109033      1.45%     99.39% |       38906      0.52%     99.90% |        2638      0.04%     99.94% |        3913      0.05%     99.99% |         534      0.01%    100.00% |         239      0.00%    100.00% |           0      0.00%    100.00% |           0      0.00%    100.00% |           0      0.00%    100.00% (Unspecified)
board.cache_hierarchy.ruby_system.RequestType.ST.latency_hist_seqr::total      7528556                       (Unspecified)
board.cache_hierarchy.ruby_system.RequestType.ST.hit_latency_hist_seqr::bucket_size            1                       (Unspecified)
board.cache_hierarchy.ruby_system.RequestType.ST.hit_latency_hist_seqr::max_bucket            9                       (Unspecified)
board.cache_hierarchy.ruby_system.RequestType.ST.hit_latency_hist_seqr::samples      7027190                       (Unspecified)
board.cache_hierarchy.ruby_system.RequestType.ST.hit_latency_hist_seqr::mean     1.000005                       (Unspecified)
board.cache_hierarchy.ruby_system.RequestType.ST.hit_latency_hist_seqr::gmean     1.000004                       (Unspecified)
board.cache_hierarchy.ruby_system.RequestType.ST.hit_latency_hist_seqr::stdev     0.002295                       (Unspecified)
board.cache_hierarchy.ruby_system.RequestType.ST.hit_latency_hist_seqr |           0      0.00%      0.00% |     7027153    100.00%    100.00% |          37      0.00%    100.00% |           0      0.00%    100.00% |           0      0.00%    100.00% |           0      0.00%    100.00% |           0      0.00%    100.00% |           0      0.00%    100.00% |           0      0.00%    100.00% |           0      0.00%    100.00% (Unspecified)
board.cache_hierarchy.ruby_system.RequestType.ST.hit_latency_hist_seqr::total      7027190                       (Unspecified)
board.cache_hierarchy.ruby_system.RequestType.ST.miss_latency_hist_seqr::bucket_size          256                       (Unspecified)
board.cache_hierarchy.ruby_system.RequestType.ST.miss_latency_hist_seqr::max_bucket         2559                       (Unspecified)
board.cache_hierarchy.ruby_system.RequestType.ST.miss_latency_hist_seqr::samples       501366                       (Unspecified)
board.cache_hierarchy.ruby_system.RequestType.ST.miss_latency_hist_seqr::mean   289.496160                       (Unspecified)
board.cache_hierarchy.ruby_system.RequestType.ST.miss_latency_hist_seqr::gmean   265.080158                       (Unspecified)
board.cache_hierarchy.ruby_system.RequestType.ST.miss_latency_hist_seqr::stdev   156.059320                       (Unspecified)
board.cache_hierarchy.ruby_system.RequestType.ST.miss_latency_hist_seqr |      346103     69.03%     69.03% |      109033     21.75%     90.78% |       38906      7.76%     98.54% |        2638      0.53%     99.07% |        3913      0.78%     99.85% |         534      0.11%     99.95% |         239      0.05%    100.00% |           0      0.00%    100.00% |           0      0.00%    100.00% |           0      0.00%    100.00% (Unspecified)
board.cache_hierarchy.ruby_system.RequestType.ST.miss_latency_hist_seqr::total       501366                       (Unspecified)
board.cache_hierarchy.ruby_system.RequestType.IFETCH.latency_hist_seqr::bucket_size          256                       (Unspecified)
board.cache_hierarchy.ruby_system.RequestType.IFETCH.latency_hist_seqr::max_bucket         2559                       (Unspecified)
board.cache_hierarchy.ruby_system.RequestType.IFETCH.latency_hist_seqr::samples     13748665                       (Unspecified)
board.cache_hierarchy.ruby_system.RequestType.IFETCH.latency_hist_seqr::mean     1.165224                       (Unspecified)
board.cache_hierarchy.ruby_system.RequestType.IFETCH.latency_hist_seqr::gmean     1.004169                       (Unspecified)
board.cache_hierarchy.ruby_system.RequestType.IFETCH.latency_hist_seqr::stdev     7.366241                       (Unspecified)
board.cache_hierarchy.ruby_system.RequestType.IFETCH.latency_hist_seqr |    13745756     99.98%     99.98% |        2424      0.02%    100.00% |         393      0.00%    100.00% |          58      0.00%    100.00% |          28      0.00%    100.00% |           6      0.00%    100.00% |           0      0.00%    100.00% |           0      0.00%    100.00% |           0      0.00%    100.00% |           0      0.00%    100.00% (Unspecified)
board.cache_hierarchy.ruby_system.RequestType.IFETCH.latency_hist_seqr::total     13748665                       (Unspecified)
board.cache_hierarchy.ruby_system.RequestType.IFETCH.hit_latency_hist_seqr::bucket_size            1                       (Unspecified)
board.cache_hierarchy.ruby_system.RequestType.IFETCH.hit_latency_hist_seqr::max_bucket            9                       (Unspecified)
board.cache_hierarchy.ruby_system.RequestType.IFETCH.hit_latency_hist_seqr::samples     13737072                       (Unspecified)
board.cache_hierarchy.ruby_system.RequestType.IFETCH.hit_latency_hist_seqr::mean            1                       (Unspecified)
board.cache_hierarchy.ruby_system.RequestType.IFETCH.hit_latency_hist_seqr::gmean            1                       (Unspecified)
board.cache_hierarchy.ruby_system.RequestType.IFETCH.hit_latency_hist_seqr |           0      0.00%      0.00% |    13737072    100.00%    100.00% |           0      0.00%    100.00% |           0      0.00%    100.00% |           0      0.00%    100.00% |           0      0.00%    100.00% |           0      0.00%    100.00% |           0      0.00%    100.00% |           0      0.00%    100.00% |           0      0.00%    100.00% (Unspecified)
board.cache_hierarchy.ruby_system.RequestType.IFETCH.hit_latency_hist_seqr::total     13737072                       (Unspecified)
board.cache_hierarchy.ruby_system.RequestType.IFETCH.miss_latency_hist_seqr::bucket_size          256                       (Unspecified)
board.cache_hierarchy.ruby_system.RequestType.IFETCH.miss_latency_hist_seqr::max_bucket         2559                       (Unspecified)
board.cache_hierarchy.ruby_system.RequestType.IFETCH.miss_latency_hist_seqr::samples        11593                       (Unspecified)
board.cache_hierarchy.ruby_system.RequestType.IFETCH.miss_latency_hist_seqr::mean   196.946174                       (Unspecified)
board.cache_hierarchy.ruby_system.RequestType.IFETCH.miss_latency_hist_seqr::gmean   138.902853                       (Unspecified)
board.cache_hierarchy.ruby_system.RequestType.IFETCH.miss_latency_hist_seqr::stdev   161.216901                       (Unspecified)
board.cache_hierarchy.ruby_system.RequestType.IFETCH.miss_latency_hist_seqr |        8684     74.91%     74.91% |        2424     20.91%     95.82% |         393      3.39%     99.21% |          58      0.50%     99.71% |          28      0.24%     99.95% |           6      0.05%    100.00% |           0      0.00%    100.00% |           0      0.00%    100.00% |           0      0.00%    100.00% |           0      0.00%    100.00% (Unspecified)
board.cache_hierarchy.ruby_system.RequestType.IFETCH.miss_latency_hist_seqr::total        11593                       (Unspecified)
board.cache_hierarchy.ruby_system.RequestType.RMW_Read.latency_hist_seqr::bucket_size          128                       (Unspecified)
board.cache_hierarchy.ruby_system.RequestType.RMW_Read.latency_hist_seqr::max_bucket         1279                       (Unspecified)
board.cache_hierarchy.ruby_system.RequestType.RMW_Read.latency_hist_seqr::samples      4002270                       (Unspecified)
board.cache_hierarchy.ruby_system.RequestType.RMW_Read.latency_hist_seqr::mean     1.036603                       (Unspecified)
board.cache_hierarchy.ruby_system.RequestType.RMW_Read.latency_hist_seqr::gmean     1.001112                       (Unspecified)
board.cache_hierarchy.ruby_system.RequestType.RMW_Read.latency_hist_seqr::stdev     2.733505                       (Unspecified)
board.cache_hierarchy.ruby_system.RequestType.RMW_Read.latency_hist_seqr |     4001832     99.99%     99.99% |         403      0.01%    100.00% |          25      0.00%    100.00% |           4      0.00%    100.00% |           0      0.00%    100.00% |           3      0.00%    100.00% |           0      0.00%    100.00% |           3      0.00%    100.00% |           0      0.00%    100.00% |           0      0.00%    100.00% (Unspecified)
board.cache_hierarchy.ruby_system.RequestType.RMW_Read.latency_hist_seqr::total      4002270                       (Unspecified)
board.cache_hierarchy.ruby_system.RequestType.RMW_Read.hit_latency_hist_seqr::bucket_size            1                       (Unspecified)
board.cache_hierarchy.ruby_system.RequestType.RMW_Read.hit_latency_hist_seqr::max_bucket            9                       (Unspecified)
board.cache_hierarchy.ruby_system.RequestType.RMW_Read.hit_latency_hist_seqr::samples      4001391                       (Unspecified)
board.cache_hierarchy.ruby_system.RequestType.RMW_Read.hit_latency_hist_seqr::mean            1                       (Unspecified)
board.cache_hierarchy.ruby_system.RequestType.RMW_Read.hit_latency_hist_seqr::gmean            1                       (Unspecified)
board.cache_hierarchy.ruby_system.RequestType.RMW_Read.hit_latency_hist_seqr |           0      0.00%      0.00% |     4001391    100.00%    100.00% |           0      0.00%    100.00% |           0      0.00%    100.00% |           0      0.00%    100.00% |           0      0.00%    100.00% |           0      0.00%    100.00% |           0      0.00%    100.00% |           0      0.00%    100.00% |           0      0.00%    100.00% (Unspecified)
board.cache_hierarchy.ruby_system.RequestType.RMW_Read.hit_latency_hist_seqr::total      4001391                       (Unspecified)
board.cache_hierarchy.ruby_system.RequestType.RMW_Read.miss_latency_hist_seqr::bucket_size          128                       (Unspecified)
board.cache_hierarchy.ruby_system.RequestType.RMW_Read.miss_latency_hist_seqr::max_bucket         1279                       (Unspecified)
board.cache_hierarchy.ruby_system.RequestType.RMW_Read.miss_latency_hist_seqr::samples          879                       (Unspecified)
board.cache_hierarchy.ruby_system.RequestType.RMW_Read.miss_latency_hist_seqr::mean   167.659841                       (Unspecified)
board.cache_hierarchy.ruby_system.RequestType.RMW_Read.miss_latency_hist_seqr::gmean   157.404311                       (Unspecified)
board.cache_hierarchy.ruby_system.RequestType.RMW_Read.miss_latency_hist_seqr::stdev    79.117004                       (Unspecified)
board.cache_hierarchy.ruby_system.RequestType.RMW_Read.miss_latency_hist_seqr |         441     50.17%     50.17% |         403     45.85%     96.02% |          25      2.84%     98.86% |           4      0.46%     99.32% |           0      0.00%     99.32% |           3      0.34%     99.66% |           0      0.00%     99.66% |           3      0.34%    100.00% |           0      0.00%    100.00% |           0      0.00%    100.00% (Unspecified)
board.cache_hierarchy.ruby_system.RequestType.RMW_Read.miss_latency_hist_seqr::total          879                       (Unspecified)
board.cache_hierarchy.ruby_system.RequestType.Locked_RMW_Read.latency_hist_seqr::bucket_size          128                       (Unspecified)
board.cache_hierarchy.ruby_system.RequestType.Locked_RMW_Read.latency_hist_seqr::max_bucket         1279                       (Unspecified)
board.cache_hierarchy.ruby_system.RequestType.Locked_RMW_Read.latency_hist_seqr::samples          329                       (Unspecified)
board.cache_hierarchy.ruby_system.RequestType.Locked_RMW_Read.latency_hist_seqr::mean    53.054711                       (Unspecified)
board.cache_hierarchy.ruby_system.RequestType.Locked_RMW_Read.latency_hist_seqr::gmean     2.710342                       (Unspecified)
board.cache_hierarchy.ruby_system.RequestType.Locked_RMW_Read.latency_hist_seqr::stdev   190.419474                       (Unspecified)
board.cache_hierarchy.ruby_system.RequestType.Locked_RMW_Read.latency_hist_seqr |         306     93.01%     93.01% |           4      1.22%     94.22% |           6      1.82%     96.05% |           1      0.30%     96.35% |           2      0.61%     96.96% |           1      0.30%     97.26% |           2      0.61%     97.87% |           1      0.30%     98.18% |           2      0.61%     98.78% |           4      1.22%    100.00% (Unspecified)
board.cache_hierarchy.ruby_system.RequestType.Locked_RMW_Read.latency_hist_seqr::total          329                       (Unspecified)
board.cache_hierarchy.ruby_system.RequestType.Locked_RMW_Read.hit_latency_hist_seqr::bucket_size            1                       (Unspecified)
board.cache_hierarchy.ruby_system.RequestType.Locked_RMW_Read.hit_latency_hist_seqr::max_bucket            9                       (Unspecified)
board.cache_hierarchy.ruby_system.RequestType.Locked_RMW_Read.hit_latency_hist_seqr::samples          260                       (Unspecified)
board.cache_hierarchy.ruby_system.RequestType.Locked_RMW_Read.hit_latency_hist_seqr::mean            1                       (Unspecified)
board.cache_hierarchy.ruby_system.RequestType.Locked_RMW_Read.hit_latency_hist_seqr::gmean            1                       (Unspecified)
board.cache_hierarchy.ruby_system.RequestType.Locked_RMW_Read.hit_latency_hist_seqr |           0      0.00%      0.00% |         260    100.00%    100.00% |           0      0.00%    100.00% |           0      0.00%    100.00% |           0      0.00%    100.00% |           0      0.00%    100.00% |           0      0.00%    100.00% |           0      0.00%    100.00% |           0      0.00%    100.00% |           0      0.00%    100.00% (Unspecified)
board.cache_hierarchy.ruby_system.RequestType.Locked_RMW_Read.hit_latency_hist_seqr::total          260                       (Unspecified)
board.cache_hierarchy.ruby_system.RequestType.Locked_RMW_Read.miss_latency_hist_seqr::bucket_size          128                       (Unspecified)
board.cache_hierarchy.ruby_system.RequestType.Locked_RMW_Read.miss_latency_hist_seqr::max_bucket         1279                       (Unspecified)
board.cache_hierarchy.ruby_system.RequestType.Locked_RMW_Read.miss_latency_hist_seqr::samples           69                       (Unspecified)
board.cache_hierarchy.ruby_system.RequestType.Locked_RMW_Read.miss_latency_hist_seqr::mean   249.202899                       (Unspecified)
board.cache_hierarchy.ruby_system.RequestType.Locked_RMW_Read.miss_latency_hist_seqr::gmean   116.067171                       (Unspecified)
board.cache_hierarchy.ruby_system.RequestType.Locked_RMW_Read.miss_latency_hist_seqr::stdev   354.257865                       (Unspecified)
board.cache_hierarchy.ruby_system.RequestType.Locked_RMW_Read.miss_latency_hist_seqr |          46     66.67%     66.67% |           4      5.80%     72.46% |           6      8.70%     81.16% |           1      1.45%     82.61% |           2      2.90%     85.51% |           1      1.45%     86.96% |           2      2.90%     89.86% |           1      1.45%     91.30% |           2      2.90%     94.20% |           4      5.80%    100.00% (Unspecified)
board.cache_hierarchy.ruby_system.RequestType.Locked_RMW_Read.miss_latency_hist_seqr::total           69                       (Unspecified)
board.cache_hierarchy.ruby_system.RequestType.Locked_RMW_Write.latency_hist_seqr::bucket_size            1                       (Unspecified)
board.cache_hierarchy.ruby_system.RequestType.Locked_RMW_Write.latency_hist_seqr::max_bucket            9                       (Unspecified)
board.cache_hierarchy.ruby_system.RequestType.Locked_RMW_Write.latency_hist_seqr::samples          329                       (Unspecified)
board.cache_hierarchy.ruby_system.RequestType.Locked_RMW_Write.latency_hist_seqr::mean            1                       (Unspecified)
board.cache_hierarchy.ruby_system.RequestType.Locked_RMW_Write.latency_hist_seqr::gmean            1                       (Unspecified)
board.cache_hierarchy.ruby_system.RequestType.Locked_RMW_Write.latency_hist_seqr |           0      0.00%      0.00% |         329    100.00%    100.00% |           0      0.00%    100.00% |           0      0.00%    100.00% |           0      0.00%    100.00% |           0      0.00%    100.00% |           0      0.00%    100.00% |           0      0.00%    100.00% |           0      0.00%    100.00% |           0      0.00%    100.00% (Unspecified)
[...]
board.processor.cores9.core.commitStats0.committedInstType::FloatMultAcc            0      0.00%     53.59% # Class of committed instruction. (Count)
board.processor.cores9.core.commitStats0.committedInstType::FloatDiv            0      0.00%     53.59% # Class of committed instruction. (Count)
board.processor.cores9.core.commitStats0.committedInstType::FloatMisc            0      0.00%     53.59% # Class of committed instruction. (Count)
board.processor.cores9.core.commitStats0.committedInstType::FloatSqrt            0      0.00%     53.59% # Class of committed instruction. (Count)
board.processor.cores9.core.commitStats0.committedInstType::SimdAdd            0      0.00%     53.59% # Class of committed instruction. (Count)
board.processor.cores9.core.commitStats0.committedInstType::SimdAddAcc            0      0.00%     53.59% # Class of committed instruction. (Count)
board.processor.cores9.core.commitStats0.committedInstType::SimdAlu           16      0.00%     53.59% # Class of committed instruction. (Count)
board.processor.cores9.core.commitStats0.committedInstType::SimdCmp            0      0.00%     53.59% # Class of committed instruction. (Count)
board.processor.cores9.core.commitStats0.committedInstType::SimdCvt           20      0.00%     53.59% # Class of committed instruction. (Count)
board.processor.cores9.core.commitStats0.committedInstType::SimdMisc           25      0.00%     53.59% # Class of committed instruction. (Count)
board.processor.cores9.core.commitStats0.committedInstType::SimdMult            0      0.00%     53.59% # Class of committed instruction. (Count)
board.processor.cores9.core.commitStats0.committedInstType::SimdMultAcc            0      0.00%     53.59% # Class of committed instruction. (Count)
board.processor.cores9.core.commitStats0.committedInstType::SimdMatMultAcc            0      0.00%     53.59% # Class of committed instruction. (Count)
board.processor.cores9.core.commitStats0.committedInstType::SimdShift            0      0.00%     53.59% # Class of committed instruction. (Count)
board.processor.cores9.core.commitStats0.committedInstType::SimdShiftAcc            0      0.00%     53.59% # Class of committed instruction. (Count)
board.processor.cores9.core.commitStats0.committedInstType::SimdDiv            0      0.00%     53.59% # Class of committed instruction. (Count)
board.processor.cores9.core.commitStats0.committedInstType::SimdSqrt            0      0.00%     53.59% # Class of committed instruction. (Count)
board.processor.cores9.core.commitStats0.committedInstType::SimdFloatAdd        62500      3.02%     56.62% # Class of committed instruction. (Count)
board.processor.cores9.core.commitStats0.committedInstType::SimdFloatAlu            0      0.00%     56.62% # Class of committed instruction. (Count)
board.processor.cores9.core.commitStats0.committedInstType::SimdFloatCmp            0      0.00%     56.62% # Class of committed instruction. (Count)
board.processor.cores9.core.commitStats0.committedInstType::SimdFloatCvt            0      0.00%     56.62% # Class of committed instruction. (Count)
board.processor.cores9.core.commitStats0.committedInstType::SimdFloatDiv            0      0.00%     56.62% # Class of committed instruction. (Count)
board.processor.cores9.core.commitStats0.committedInstType::SimdFloatMisc            0      0.00%     56.62% # Class of committed instruction. (Count)
board.processor.cores9.core.commitStats0.committedInstType::SimdFloatMult        62500      3.02%     59.64% # Class of committed instruction. (Count)
board.processor.cores9.core.commitStats0.committedInstType::SimdFloatMultAcc            0      0.00%     59.64% # Class of committed instruction. (Count)
board.processor.cores9.core.commitStats0.committedInstType::SimdFloatMatMultAcc            0      0.00%     59.64% # Class of committed instruction. (Count)
board.processor.cores9.core.commitStats0.committedInstType::SimdFloatSqrt            0      0.00%     59.64% # Class of committed instruction. (Count)
board.processor.cores9.core.commitStats0.committedInstType::SimdReduceAdd            0      0.00%     59.64% # Class of committed instruction. (Count)
board.processor.cores9.core.commitStats0.committedInstType::SimdReduceAlu            0      0.00%     59.64% # Class of committed instruction. (Count)
board.processor.cores9.core.commitStats0.committedInstType::SimdReduceCmp            0      0.00%     59.64% # Class of committed instruction. (Count)
board.processor.cores9.core.commitStats0.committedInstType::SimdFloatReduceAdd            0      0.00%     59.64% # Class of committed instruction. (Count)
board.processor.cores9.core.commitStats0.committedInstType::SimdFloatReduceCmp            0      0.00%     59.64% # Class of committed instruction. (Count)
board.processor.cores9.core.commitStats0.committedInstType::SimdAes            0      0.00%     59.64% # Class of committed instruction. (Count)
board.processor.cores9.core.commitStats0.committedInstType::SimdAesMix            0      0.00%     59.64% # Class of committed instruction. (Count)
board.processor.cores9.core.commitStats0.committedInstType::SimdSha1Hash            0      0.00%     59.64% # Class of committed instruction. (Count)
board.processor.cores9.core.commitStats0.committedInstType::SimdSha1Hash2            0      0.00%     59.64% # Class of committed instruction. (Count)
board.processor.cores9.core.commitStats0.committedInstType::SimdSha256Hash            0      0.00%     59.64% # Class of committed instruction. (Count)
board.processor.cores9.core.commitStats0.committedInstType::SimdSha256Hash2            0      0.00%     59.64% # Class of committed instruction. (Count)
board.processor.cores9.core.commitStats0.committedInstType::SimdShaSigma2            0      0.00%     59.64% # Class of committed instruction. (Count)
board.processor.cores9.core.commitStats0.committedInstType::SimdShaSigma3            0      0.00%     59.64% # Class of committed instruction. (Count)
board.processor.cores9.core.commitStats0.committedInstType::SimdPredAlu            0      0.00%     59.64% # Class of committed instruction. (Count)
board.processor.cores9.core.commitStats0.committedInstType::Matrix            0      0.00%     59.64% # Class of committed instruction. (Count)
board.processor.cores9.core.commitStats0.committedInstType::MatrixMov            0      0.00%     59.64% # Class of committed instruction. (Count)
board.processor.cores9.core.commitStats0.committedInstType::MatrixOP            0      0.00%     59.64% # Class of committed instruction. (Count)
board.processor.cores9.core.commitStats0.committedInstType::MemRead       521228     25.22%     84.87% # Class of committed instruction. (Count)
board.processor.cores9.core.commitStats0.committedInstType::MemWrite        62671      3.03%     87.90% # Class of committed instruction. (Count)
board.processor.cores9.core.commitStats0.committedInstType::FloatMemRead       187525      9.08%     96.97% # Class of committed instruction. (Count)
board.processor.cores9.core.commitStats0.committedInstType::FloatMemWrite        62519      3.03%    100.00% # Class of committed instruction. (Count)
board.processor.cores9.core.commitStats0.committedInstType::IprAccess            0      0.00%    100.00% # Class of committed instruction. (Count)
board.processor.cores9.core.commitStats0.committedInstType::InstPrefetch            0      0.00%    100.00% # Class of committed instruction. (Count)
board.processor.cores9.core.commitStats0.committedInstType::SimdUnitStrideLoad            0      0.00%    100.00% # Class of committed instruction. (Count)
board.processor.cores9.core.commitStats0.committedInstType::SimdUnitStrideStore            0      0.00%    100.00% # Class of committed instruction. (Count)
board.processor.cores9.core.commitStats0.committedInstType::SimdUnitStrideMaskLoad            0      0.00%    100.00% # Class of committed instruction. (Count)
board.processor.cores9.core.commitStats0.committedInstType::SimdUnitStrideMaskStore            0      0.00%    100.00% # Class of committed instruction. (Count)
board.processor.cores9.core.commitStats0.committedInstType::SimdStridedLoad            0      0.00%    100.00% # Class of committed instruction. (Count)
board.processor.cores9.core.commitStats0.committedInstType::SimdStridedStore            0      0.00%    100.00% # Class of committed instruction. (Count)
board.processor.cores9.core.commitStats0.committedInstType::SimdIndexedLoad            0      0.00%    100.00% # Class of committed instruction. (Count)
board.processor.cores9.core.commitStats0.committedInstType::SimdIndexedStore            0      0.00%    100.00% # Class of committed instruction. (Count)
board.processor.cores9.core.commitStats0.committedInstType::SimdWholeRegisterLoad            0      0.00%    100.00% # Class of committed instruction. (Count)
board.processor.cores9.core.commitStats0.committedInstType::SimdWholeRegisterStore            0      0.00%    100.00% # Class of committed instruction. (Count)
board.processor.cores9.core.commitStats0.committedInstType::SimdUnitStrideFaultOnlyFirstLoad            0      0.00%    100.00% # Class of committed instruction. (Count)
board.processor.cores9.core.commitStats0.committedInstType::SimdUnitStrideSegmentedLoad            0      0.00%    100.00% # Class of committed instruction. (Count)
board.processor.cores9.core.commitStats0.committedInstType::SimdUnitStrideSegmentedStore            0      0.00%    100.00% # Class of committed instruction. (Count)
board.processor.cores9.core.commitStats0.committedInstType::SimdExt            0      0.00%    100.00% # Class of committed instruction. (Count)
board.processor.cores9.core.commitStats0.committedInstType::SimdFloatExt            0      0.00%    100.00% # Class of committed instruction. (Count)
board.processor.cores9.core.commitStats0.committedInstType::SimdConfig            0      0.00%    100.00% # Class of committed instruction. (Count)
board.processor.cores9.core.commitStats0.committedInstType::total      2066336                       # Class of committed instruction. (Count)
board.processor.cores9.core.executeStats0.numInsts            0                       # Number of executed instructions (Count)
board.processor.cores9.core.executeStats0.numNop            0                       # Number of nop insts executed (Count)
board.processor.cores9.core.executeStats0.numBranches            0                       # Number of branches executed (Count)
board.processor.cores9.core.executeStats0.numLoadInsts            0                       # Number of load instructions executed (Count)
board.processor.cores9.core.executeStats0.numStoreInsts            0                       # Number of stores executed (Count)
board.processor.cores9.core.executeStats0.instRate            0                       # Inst execution rate ((Count/Cycle))
board.processor.cores9.core.executeStats0.numFpRegWrites            0                       # Number of times the floating registers were written (Count)
board.processor.cores9.core.executeStats0.numMemRefs            0                       # Number of memory refs (Count)
board.processor.cores9.core.executeStats0.numVecAluAccesses            0                       # Number of vector alu accesses (Count)
board.processor.cores9.core.executeStats0.numDiscardedOps       334384                       # Number of ops (including micro ops) which were discarded before commit (Count)
board.processor.cores9.core.fetch2.intInstructions            0                       # Number of integer instructions successfully decoded (Count)
board.processor.cores9.core.fetch2.fpInstructions            0                       # Number of floating point instructions successfully decoded (Count)
board.processor.cores9.core.fetch2.vecInstructions            0                       # Number of SIMD instructions successfully decoded (Count)
board.processor.cores9.core.fetch2.loadInstructions            0                       # Number of memory load instructions successfully decoded (Count)
board.processor.cores9.core.fetch2.storeInstructions            0                       # Number of memory store instructions successfully decoded (Count)
board.processor.cores9.core.fetch2.amoInstructions            0                       # Number of memory atomic instructions successfully decoded (Count)
board.processor.cores9.core.fetchStats0.numInsts            0                       # Number of instructions fetched (thread level) (Count)
board.processor.cores9.core.fetchStats0.numOps            0                       # Number of ops (including micro ops) fetched (thread level) (Count)
board.processor.cores9.core.fetchStats0.fetchRate            0                       # Number of inst fetches per cycle ((Count/Cycle))
board.processor.cores9.core.fetchStats0.branchRate            0                       # Number of branch fetches per cycle (Ratio)
board.processor.cores9.core.fetchStats0.numFetchSuspends            0                       # Number of times Execute suspended instruction fetching (Count)
board.processor.cores9.core.interrupts.clk_domain.clock         5328                       # Clock period in ticks (Tick)
board.processor.cores9.core.mmu.dtb.rdAccesses       729812                       # TLB accesses on read requests (Count)
board.processor.cores9.core.mmu.dtb.wrAccesses       125202                       # TLB accesses on write requests (Count)
board.processor.cores9.core.mmu.dtb.rdMisses          268                       # TLB misses on read requests (Count)
board.processor.cores9.core.mmu.dtb.wrMisses          126                       # TLB misses on write requests (Count)
board.processor.cores9.core.mmu.dtb.walker.power_state.pwrStateResidencyTicks::UNDEFINED  59523680403                       # Cumulative time (in ticks) in various power states (Tick)
board.processor.cores9.core.mmu.itb.rdAccesses            0                       # TLB accesses on read requests (Count)
board.processor.cores9.core.mmu.itb.wrAccesses       297222                       # TLB accesses on write requests (Count)
board.processor.cores9.core.mmu.itb.rdMisses            0                       # TLB misses on read requests (Count)
board.processor.cores9.core.mmu.itb.wrMisses           22                       # TLB misses on write requests (Count)
board.processor.cores9.core.mmu.itb.walker.power_state.pwrStateResidencyTicks::UNDEFINED  59523680403                       # Cumulative time (in ticks) in various power states (Tick)
board.processor.cores9.core.power_state.pwrStateResidencyTicks::ON  59523680403                       # Cumulative time (in ticks) in various power states (Tick)
board.processor.cores9.core.thread_0.numInsts      1397970                       # Number of Instructions committed (Count)
board.processor.cores9.core.thread_0.numOps      2066336                       # Number of Ops committed (Count)
board.processor.cores9.core.thread_0.numMemRefs            0                       # Number of Memory References (Count)
board.workload.inst.arm                             0                       # number of arm instructions executed (Count)
board.workload.inst.quiesce                         0                       # number of quiesce instructions executed (Count)
board.processor.cores00.core.idleCycles      95904597                       # Total number of cycles that the object has spent stopped (Unspecified)
board.processor.cores00.core.tickCycles      82845194                       # Number of cycles that the object actually ticked (Unspecified)
board.processor.cores01.core.idleCycles       9333421                       # Total number of cycles that the object has spent stopped (Unspecified)
board.processor.cores01.core.tickCycles       3022856                       # Number of cycles that the object actually ticked (Unspecified)
board.processor.cores02.core.idleCycles       9280187                       # Total number of cycles that the object has spent stopped (Unspecified)
board.processor.cores02.core.tickCycles       3064803                       # Number of cycles that the object actually ticked (Unspecified)
board.processor.cores03.core.idleCycles       9297659                       # Total number of cycles that the object has spent stopped (Unspecified)
board.processor.cores03.core.tickCycles       3038733                       # Number of cycles that the object actually ticked (Unspecified)
board.processor.cores04.core.idleCycles       9247497                       # Total number of cycles that the object has spent stopped (Unspecified)
board.processor.cores04.core.tickCycles       3080091                       # Number of cycles that the object actually ticked (Unspecified)
board.processor.cores05.core.idleCycles       9185523                       # Total number of cycles that the object has spent stopped (Unspecified)
board.processor.cores05.core.tickCycles       3133221                       # Number of cycles that the object actually ticked (Unspecified)
board.processor.cores06.core.idleCycles       9218982                       # Total number of cycles that the object has spent stopped (Unspecified)
board.processor.cores06.core.tickCycles       3091663                       # Number of cycles that the object actually ticked (Unspecified)
board.processor.cores07.core.idleCycles       9233901                       # Total number of cycles that the object has spent stopped (Unspecified)
board.processor.cores07.core.tickCycles       3069140                       # Number of cycles that the object actually ticked (Unspecified)
board.processor.cores08.core.idleCycles       9226320                       # Total number of cycles that the object has spent stopped (Unspecified)
board.processor.cores08.core.tickCycles       3068914                       # Number of cycles that the object actually ticked (Unspecified)
board.processor.cores09.core.idleCycles       9244886                       # Total number of cycles that the object has spent stopped (Unspecified)
board.processor.cores09.core.tickCycles       3041675                       # Number of cycles that the object actually ticked (Unspecified)
board.processor.cores10.core.idleCycles       9276990                       # Total number of cycles that the object has spent stopped (Unspecified)
board.processor.cores10.core.tickCycles       3001939                       # Number of cycles that the object actually ticked (Unspecified)
board.processor.cores11.core.idleCycles       9292461                       # Total number of cycles that the object has spent stopped (Unspecified)
board.processor.cores11.core.tickCycles       2978943                       # Number of cycles that the object actually ticked (Unspecified)
board.processor.cores12.core.idleCycles       9341422                       # Total number of cycles that the object has spent stopped (Unspecified)
board.processor.cores12.core.tickCycles       2920584                       # Number of cycles that the object actually ticked (Unspecified)
board.processor.cores13.core.idleCycles       9326082                       # Total number of cycles that the object has spent stopped (Unspecified)
board.processor.cores13.core.tickCycles       2927549                       # Number of cycles that the object actually ticked (Unspecified)
board.processor.cores14.core.idleCycles       9342444                       # Total number of cycles that the object has spent stopped (Unspecified)
board.processor.cores14.core.tickCycles       2903599                       # Number of cycles that the object actually ticked (Unspecified)
board.processor.cores15.core.idleCycles       9327270                       # Total number of cycles that the object has spent stopped (Unspecified)
board.processor.cores15.core.tickCycles       2910155                       # Number of cycles that the object actually ticked (Unspecified)

---------- End Simulation Statistics   ----------
